ROOT
ATOM      1  C1  SGN B 305     -11.440  11.722   48.180  0.00  0.00     0.000 C
ATOM      2  C2  SGN B 305     -11.820  12.717   49.280  0.00  0.00     0.000 C
ATOM      3  C3  SGN B 305     -12.860  13.694   48.690  0.00  0.00     0.000 C
ATOM      4  C4  SGN B 305     -12.180  14.449   47.520  0.00  0.00     0.000 C
ATOM      5  C5  SGN B 305     -11.720  13.419   46.480  0.00  0.00     0.000 C
ATOM      6  O5  SGN B 305     -10.860  12.423   47.080  0.00  0.00     0.000 O
ATOM      7   S  SGN B 305     -11.220  11.406   51.500  0.00  0.00     0.000 S
ATOM      8   O  SGN B 305     -10.370  10.524   50.750  0.00  0.00     0.000 OA
ATOM      9   O  SGN B 305     -10.440  12.503   52.010  0.00  0.00     0.000 OA
ATOM     10   O  SGN B 305     -11.990  10.746   52.500  0.00  0.00     0.000 OA
ATOM     11   N  SGN B 305     -12.320  12.003   50.470  0.00  0.00     0.000 N
ATOM     13  HD  SGN B 305     -11.820  12.503   50.970  0.00  0.00     0.000 HD
ATOM     13   O  SGN B 305     -13.260  14.645   49.660  0.00  0.00     0.000 O
ATOM     15  HD  SGN B 305     -12.760  15.145   50.160  0.00  0.00     0.000 HD
ATOM     15   O  SGN B 305     -13.160  15.315   46.970  0.00  0.00     0.000 O
ATOM     17  HD  SGN B 305     -12.660  15.815   47.470  0.00  0.00     0.000 HD
ATOM     17   O  SGN B 305      -9.730  14.512   45.710  0.00  0.00     0.000 O
ATOM     18   S  SGN B 305      -8.580  15.029   44.770  0.00  0.00     0.000 S
ATOM     19   O  SGN B 305      -8.910  16.419   44.550  0.00  0.00     0.000 OA
ATOM     20   O  SGN B 305      -7.310  14.850   45.470  0.00  0.00     0.000 OA
ATOM     21   O  SGN B 305      -8.620  14.221   43.560  0.00  0.00     0.000 OA
ATOM     22   C  SGN B 305     -10.970  14.022   45.290  0.00  0.00     0.000 C
ENDROOT
BRANCH 1 23
ATOM     23  O4  IDS B 304     -12.600  11.003   47.810  0.00  0.00     0.000 O
BRANCH 23 27
ATOM     24  C1  IDS B 304     -14.850   8.329   47.150  0.00  0.00     0.000 C
ATOM     25  C2  IDS B 304     -13.810   8.212   48.270  0.00  0.00     0.000 C
ATOM     26  C3  IDS B 304     -12.390   8.645   47.830  0.00  0.00     0.000 C
ATOM     27  C4  IDS B 304     -12.400   9.909   46.980  0.00  0.00     0.000 C
ATOM     28  C5  IDS B 304     -13.520   9.868   45.980  0.00  0.00     0.000 C
ATOM     29  O5  IDS B 304     -14.760   9.616   46.560  0.00  0.00     0.000 O
ATOM     30   O  IDS B 304     -14.210   9.037   49.330  0.00  0.00     0.000 O
ATOM     31   S  IDS B 304     -15.110   8.644   50.540  0.00  0.00     0.000 S
ATOM     32   O  IDS B 304     -14.280   7.892   51.430  0.00  0.00     0.000 OA
ATOM     33   O  IDS B 304     -15.490   9.899   51.060  0.00  0.00     0.000 OA
ATOM     34   O  IDS B 304     -16.250   7.901   50.110  0.00  0.00     0.000 OA
ATOM     35   O  IDS B 304     -11.810   7.630   47.050  0.00  0.00     0.000 O
ATOM     37  HD  IDS B 304     -11.310   8.130   47.550  0.00  0.00     0.000 HD
ATOM     37   O  IDS B 304     -14.660  11.713   45.130  0.00  0.00     0.000 OA
ATOM     38   O  IDS B 304     -12.670  11.482   44.570  0.00  0.00     0.000 OA
ATOM     39   C  IDS B 304     -13.620  11.088   45.180  0.00  0.00     0.000 C
BRANCH 24 40
ATOM     40  O4  SGN B 303     -14.620   7.300   46.220  0.00  0.00     0.000 O
BRANCH 40 44
ATOM     41  C1  SGN B 303     -16.950   4.833   43.830  0.00  0.00     0.000 C
ATOM     42  C2  SGN B 303     -16.120   5.878   43.090  0.00  0.00     0.000 C
ATOM     43  C3  SGN B 303     -15.010   6.438   43.990  0.00  0.00     0.000 C
ATOM     44  C4  SGN B 303     -15.650   6.975   45.330  0.00  0.00     0.000 C
ATOM     45  C5  SGN B 303     -16.470   5.831   45.930  0.00  0.00     0.000 C
ATOM     46  O5  SGN B 303     -17.470   5.400   45.020  0.00  0.00     0.000 O
ATOM     47   S  SGN B 303     -16.450   5.457   40.530  0.00  0.00     0.000 S
ATOM     48   O  SGN B 303     -17.780   4.970   40.820  0.00  0.00     0.000 OA
ATOM     49   O  SGN B 303     -16.460   6.864   40.280  0.00  0.00     0.000 OA
ATOM     50   O  SGN B 303     -15.790   4.705   39.540  0.00  0.00     0.000 OA
ATOM     51   N  SGN B 303     -15.570   5.284   41.870  0.00  0.00     0.000 N
ATOM     53  HD  SGN B 303     -15.070   5.784   42.370  0.00  0.00     0.000 HD
ATOM     53   O  SGN B 303     -14.380   7.491   43.310  0.00  0.00     0.000 O
ATOM     55  HD  SGN B 303     -13.880   7.991   43.810  0.00  0.00     0.000 HD
ATOM     55   S  SGN B 303     -19.350   7.460   47.760  0.00  0.00     0.000 S
ATOM     56   O  SGN B 303     -18.940   7.670   49.120  0.00  0.00     0.000 OA
ATOM     57   O  SGN B 303     -19.910   8.649   47.160  0.00  0.00     0.000 OA
ATOM     58   O  SGN B 303     -20.190   6.283   47.590  0.00  0.00     0.000 OA
ATOM     59   C  SGN B 303     -17.170   6.153   47.210  0.00  0.00     0.000 C
ATOM     60   O  SGN B 303     -18.050   7.189   46.950  0.00  0.00     0.000 O
BRANCH 41 61
ATOM     61  O4  IDS B 302     -16.110   3.733   44.090  0.00  0.00     0.000 O
BRANCH 61 65
ATOM     62  C1  IDS B 302     -14.490   0.720   44.740  0.00  0.00     0.000 C
ATOM     63  C2  IDS B 302     -14.450   1.174   43.270  0.00  0.00     0.000 C
ATOM     64  C3  IDS B 302     -15.780   1.757   42.750  0.00  0.00     0.000 C
ATOM     65  C4  IDS B 302     -16.620   2.457   43.850  0.00  0.00     0.000 C
ATOM     66  C5  IDS B 302     -16.550   1.691   45.130  0.00  0.00     0.000 C
ATOM     67  O5  IDS B 302     -15.220   1.623   45.530  0.00  0.00     0.000 O
ATOM     68   O  IDS B 302     -13.430   2.139   43.080  0.00  0.00     0.000 O
ATOM     69   S  IDS B 302     -12.790   2.548   41.720  0.00  0.00     0.000 S
ATOM     70   O  IDS B 302     -13.360   3.803   41.380  0.00  0.00     0.000 OA
ATOM     71   O  IDS B 302     -11.380   2.616   41.910  0.00  0.00     0.000 OA
ATOM     72   O  IDS B 302     -13.180   1.545   40.800  0.00  0.00     0.000 OA
ATOM     73   O  IDS B 302     -16.540   0.702   42.220  0.00  0.00     0.000 O
ATOM     75  HD  IDS B 302     -16.040   1.202   42.720  0.00  0.00     0.000 HD
ATOM     75   O  IDS B 302     -18.610   2.424   45.980  0.00  0.00     0.000 OA
ATOM     76   C  IDS B 302     -17.420   2.229   46.200  0.00  0.00     0.000 C
ATOM     77   O  IDS B 302     -16.970   2.477   47.300  0.00  0.00     0.000 OA
BRANCH 62 78
ATOM     78  O4  SGN B 301     -15.080  -0.547   44.790  0.00  0.00     0.000 O
BRANCH 78 82
ATOM     79  C1  SGN B 301     -13.630  -3.922   46.620  0.00  0.00     0.000 C
ATOM     80  C2  SGN B 301     -14.480  -2.964   47.460  0.00  0.00     0.000 C
ATOM     81  C3  SGN B 301     -15.380  -2.172   46.510  0.00  0.00     0.000 C
ATOM     82  C4  SGN B 301     -14.410  -1.414   45.620  0.00  0.00     0.000 C
ATOM     83  C5  SGN B 301     -13.760  -2.464   44.800  0.00  0.00     0.000 C
ATOM     84  O5  SGN B 301     -12.920  -3.226   45.630  0.00  0.00     0.000 O
ATOM     85   O  SGN B 301     -14.460  -4.908   46.010  0.00  0.00     0.000 OA
ATOM     86   O  SGN B 301     -15.850  -4.209   50.750  0.00  0.00     0.000 OA
ATOM     87   N  SGN B 301     -15.250  -3.692   48.450  0.00  0.00     0.000 N
ATOM     89  HD  SGN B 301     -14.750  -3.192   48.950  0.00  0.00     0.000 HD
ATOM     89   S  SGN B 301     -15.020  -3.286   50.010  0.00  0.00     0.000 S
ATOM     90   O  SGN B 301     -13.580  -3.419   50.290  0.00  0.00     0.000 OA
ATOM     91   O  SGN B 301     -15.530  -1.929   50.140  0.00  0.00     0.000 OA
ATOM     92   O  SGN B 301     -16.190  -1.270   47.230  0.00  0.00     0.000 O
ATOM     94  HD  SGN B 301     -15.690  -0.770   47.730  0.00  0.00     0.000 HD
ATOM     94   S  SGN B 301     -10.460  -1.820   44.130  0.00  0.00     0.000 S
ATOM     95   O  SGN B 301      -9.640  -0.819   43.460  0.00  0.00     0.000 OA
ATOM     96   O  SGN B 301     -10.090  -1.988   45.520  0.00  0.00     0.000 OA
ATOM     97   O  SGN B 301     -10.550  -3.065   43.370  0.00  0.00     0.000 OA
ATOM     98   C  SGN B 301     -12.950  -1.929   43.640  0.00  0.00     0.000 C
ATOM     99   O  SGN B 301     -11.880  -1.252   44.150  0.00  0.00     0.000 O
ENDBRANCH 78 82
ENDBRANCH 62 78
ENDBRANCH 61 65
ENDBRANCH 41 61
ENDBRANCH 40 44
ENDBRANCH 24 40
ENDBRANCH 23 27
ENDBRANCH 1 23
TORSDOF 8