ROOT
ATOM      1  C1  SGN C 405      22.250  22.373  110.850  0.00  0.00     0.000 C
ATOM      2  C2  SGN C 405      21.600  21.562  111.990  0.00  0.00     0.000 C
ATOM      3  C3  SGN C 405      21.120  20.196  111.510  0.00  0.00     0.000 C
ATOM      4  C4  SGN C 405      20.180  20.421  110.310  0.00  0.00     0.000 C
ATOM      5  C5  SGN C 405      21.050  21.010  109.200  0.00  0.00     0.000 C
ATOM      6  O5  SGN C 405      21.500  22.331  109.620  0.00  0.00     0.000 O
ATOM      7   S  SGN C 405      22.300  22.276  114.420  0.00  0.00     0.000 S
ATOM      8   O  SGN C 405      22.900  23.563  114.180  0.00  0.00     0.000 OA
ATOM      9   O  SGN C 405      20.870  22.348  114.570  0.00  0.00     0.000 OA
ATOM     10   O  SGN C 405      22.950  21.613  115.510  0.00  0.00     0.000 OA
ATOM     11   N  SGN C 405      22.560  21.418  113.090  0.00  0.00     0.000 N
ATOM     13  HD  SGN C 405      23.060  21.918  113.590  0.00  0.00     0.000 HD
ATOM     13   O  SGN C 405      20.410  19.562  112.550  0.00  0.00     0.000 O
ATOM     15  HD  SGN C 405      20.910  20.062  113.050  0.00  0.00     0.000 HD
ATOM     15   O  SGN C 405      19.630  19.173  109.900  0.00  0.00     0.000 O
ATOM     17  HD  SGN C 405      20.130  19.673  110.400  0.00  0.00     0.000 HD
ATOM     17   O  SGN C 405      18.980  21.441  107.950  0.00  0.00     0.000 O
ATOM     18   S  SGN C 405      18.310  22.892  107.910  0.00  0.00     0.000 S
ATOM     19   O  SGN C 405      18.550  23.408  106.600  0.00  0.00     0.000 OA
ATOM     20   O  SGN C 405      16.910  22.685  108.140  0.00  0.00     0.000 OA
ATOM     21   O  SGN C 405      18.960  23.699  108.940  0.00  0.00     0.000 OA
ATOM     22   C  SGN C 405      20.360  21.110  107.820  0.00  0.00     0.000 C
ENDROOT
BRANCH 1 23
ATOM     23  O4  IDS C 404      23.580  21.986  110.720  0.00  0.00     0.000 O
BRANCH 23 27
ATOM     24  C1  IDS C 404      27.180  21.938  110.250  0.00  0.00     0.000 C
ATOM     25  C2  IDS C 404      26.620  22.717  111.470  0.00  0.00     0.000 C
ATOM     26  C3  IDS C 404      25.370  23.558  111.170  0.00  0.00     0.000 C
ATOM     27  C4  IDS C 404      24.420  22.929  110.110  0.00  0.00     0.000 C
ATOM     28  C5  IDS C 404      25.170  22.222  108.990  0.00  0.00     0.000 C
ATOM     29  O5  IDS C 404      26.140  21.322  109.480  0.00  0.00     0.000 O
ATOM     30   O  IDS C 404      26.310  21.805  112.530  0.00  0.00     0.000 O
ATOM     31   S  IDS C 404      27.340  21.203  113.530  0.00  0.00     0.000 S
ATOM     32   O  IDS C 404      27.560  22.214  114.490  0.00  0.00     0.000 OA
ATOM     33   O  IDS C 404      26.760  20.012  114.060  0.00  0.00     0.000 OA
ATOM     34   O  IDS C 404      28.530  20.969  112.800  0.00  0.00     0.000 OA
ATOM     35   O  IDS C 404      25.810  24.805  110.690  0.00  0.00     0.000 O
ATOM     37  HD  IDS C 404      26.310  25.305  111.190  0.00  0.00     0.000 HD
ATOM     37   O  IDS C 404      23.730  20.424  108.430  0.00  0.00     0.000 OA
ATOM     38   O  IDS C 404      23.900  21.943  106.990  0.00  0.00     0.000 OA
ATOM     39   C  IDS C 404      24.220  21.485  108.070  0.00  0.00     0.000 C
BRANCH 24 40
ATOM     40  O4  SGN C 403      27.970  22.797  109.470  0.00  0.00     0.000 O
BRANCH 40 44
ATOM     41  C1  SGN C 403      31.260  22.707  107.010  0.00  0.00     0.000 C
ATOM     42  C2  SGN C 403      29.920  22.505  106.360  0.00  0.00     0.000 C
ATOM     43  C3  SGN C 403      28.840  23.010  107.290  0.00  0.00     0.000 C
ATOM     44  C4  SGN C 403      28.890  22.216  108.590  0.00  0.00     0.000 C
ATOM     45  C5  SGN C 403      30.320  22.337  109.180  0.00  0.00     0.000 C
ATOM     46  O5  SGN C 403      31.310  22.003  108.240  0.00  0.00     0.000 O
ATOM     47   O  SGN C 403      28.720  21.847  103.410  0.00  0.00     0.000 OA
ATOM     48   O  SGN C 403      30.710  23.079  102.780  0.00  0.00     0.000 OA
ATOM     49   N  SGN C 403      29.910  23.175  105.080  0.00  0.00     0.000 N
ATOM     51  HD  SGN C 403      30.410  23.675  105.580  0.00  0.00     0.000 HD
ATOM     51   S  SGN C 403      30.070  22.260  103.760  0.00  0.00     0.000 S
ATOM     52   O  SGN C 403      30.920  21.150  104.120  0.00  0.00     0.000 OA
ATOM     53   O  SGN C 403      27.590  22.818  106.710  0.00  0.00     0.000 O
ATOM     55  HD  SGN C 403      28.090  23.318  107.210  0.00  0.00     0.000 HD
ATOM     55   S  SGN C 403      30.570  18.715  110.650  0.00  0.00     0.000 S
ATOM     56   O  SGN C 403      29.220  18.379  110.200  0.00  0.00     0.000 OA
ATOM     57   O  SGN C 403      31.590  17.827  110.160  0.00  0.00     0.000 OA
ATOM     58   O  SGN C 403      30.630  18.866  112.060  0.00  0.00     0.000 OA
ATOM     59   C  SGN C 403      30.600  21.415  110.390  0.00  0.00     0.000 C
ATOM     60   O  SGN C 403      30.880  20.099  109.940  0.00  0.00     0.000 O
BRANCH 41 61
ATOM     61  O4  IDS C 402      31.510  24.079  107.140  0.00  0.00     0.000 O
BRANCH 61 65
ATOM     62  C1  IDS C 402      33.030  27.352  107.200  0.00  0.00     0.000 C
ATOM     63  C2  IDS C 402      33.070  26.478  105.950  0.00  0.00     0.000 C
ATOM     64  C3  IDS C 402      33.490  25.021  106.220  0.00  0.00     0.000 C
ATOM     65  C4  IDS C 402      32.820  24.439  107.460  0.00  0.00     0.000 C
ATOM     66  C5  IDS C 402      32.810  25.465  108.620  0.00  0.00     0.000 C
ATOM     67  O5  IDS C 402      32.270  26.708  108.190  0.00  0.00     0.000 O
ATOM     68   O  IDS C 402      31.800  26.453  105.360  0.00  0.00     0.000 O
ATOM     69   S  IDS C 402      31.270  27.364  104.210  0.00  0.00     0.000 S
ATOM     70   O  IDS C 402      31.390  26.587  103.010  0.00  0.00     0.000 OA
ATOM     71   O  IDS C 402      29.940  27.635  104.570  0.00  0.00     0.000 OA
ATOM     72   O  IDS C 402      32.110  28.543  104.190  0.00  0.00     0.000 OA
ATOM     73   O  IDS C 402      34.880  24.996  106.420  0.00  0.00     0.000 O
ATOM     75  HD  IDS C 402      35.380  25.496  106.920  0.00  0.00     0.000 HD
ATOM     75   C  IDS C 402      32.100  25.009  109.910  0.00  0.00     0.000 C
ATOM     76   O  IDS C 402      30.900  25.273  110.130  0.00  0.00     0.000 OA
ATOM     77   O  IDS C 402      32.710  24.364  110.750  0.00  0.00     0.000 OA
BRANCH 62 78
ATOM     78  O4  SGN C 401      34.340  27.637  107.640  0.00  0.00     0.000 O
BRANCH 78 82
ATOM     79  C1  SGN C 401      36.320  30.604  109.690  0.00  0.00     0.000 C
ATOM     80  C2  SGN C 401      35.910  29.395  110.540  0.00  0.00     0.000 C
ATOM     81  C3  SGN C 401      35.590  28.230  109.580  0.00  0.00     0.000 C
ATOM     82  C4  SGN C 401      34.470  28.640  108.620  0.00  0.00     0.000 C
ATOM     83  C5  SGN C 401      34.850  29.984  107.930  0.00  0.00     0.000 C
ATOM     84  O5  SGN C 401      35.270  30.986  108.850  0.00  0.00     0.000 O
ATOM     85   O  SGN C 401      37.470  30.294  108.880  0.00  0.00     0.000 OA
ATOM     86   N  SGN C 401      36.990  29.044  111.530  0.00  0.00     0.000 N
ATOM     88  HD  SGN C 401      37.490  29.544  112.030  0.00  0.00     0.000 HD
ATOM     88   S  SGN C 401      36.810  29.373  113.180  0.00  0.00     0.000 S
ATOM     89   O  SGN C 401      35.740  30.340  113.310  0.00  0.00     0.000 OA
ATOM     90   O  SGN C 401      36.490  28.126  113.820  0.00  0.00     0.000 OA
ATOM     91   O  SGN C 401      38.080  29.908  113.610  0.00  0.00     0.000 OA
ATOM     92   O  SGN C 401      35.130  27.113  110.320  0.00  0.00     0.000 O
ATOM     94  HD  SGN C 401      35.630  27.613  110.820  0.00  0.00     0.000 HD
ATOM     94   O  SGN C 401      30.730  30.267  106.890  0.00  0.00     0.000 OA
ATOM     95   O  SGN C 401      30.560  30.777  109.200  0.00  0.00     0.000 OA
ATOM     96   O  SGN C 401      31.130  32.525  107.630  0.00  0.00     0.000 OA
ATOM     97   C  SGN C 401      33.670  30.607  107.190  0.00  0.00     0.000 C
ATOM     98   O  SGN C 401      32.680  30.784  108.170  0.00  0.00     0.000 O
ATOM     99   S  SGN C 401      31.190  31.108  107.950  0.00  0.00     0.000 S
ENDBRANCH 78 82
ENDBRANCH 62 78
ENDBRANCH 61 65
ENDBRANCH 41 61
ENDBRANCH 40 44
ENDBRANCH 24 40
ENDBRANCH 23 27
ENDBRANCH 1 23
TORSDOF 8