MODEL 1
REMARK VINA RESULT:       1.5      0.000      0.000
ROOT
ATOM      1  C1  IDS F 506     -20.814  55.675 169.3660  0.00  0.00     0.000 C
ATOM      2  C2  IDS F 506     -21.585  55.055 168.1890  0.00  0.00     0.000 C
ATOM      3  C3  IDS F 506     -22.170  56.111 167.2200  0.00  0.00     0.000 C
ATOM      4  C4  IDS F 506     -21.249  57.332 166.9910  0.00  0.00     0.000 C
ATOM      5  C5  IDS F 506     -20.552  57.726 168.2980  0.00  0.00     0.000 C
ATOM      6  O5  IDS F 506     -19.917  56.624 168.8560  0.00  0.00     0.000 O
ATOM      7   S  IDS F 506     -21.124  53.085 166.3980  0.00  0.00     0.000 S
ATOM      8   O  IDS F 506     -22.064  53.701 165.5120  0.00  0.00     0.000 OA
ATOM      9   O  IDS F 506     -19.936  52.689 165.6990  0.00  0.00     0.000 OA
ATOM     10   O  IDS F 506     -21.698  52.024 167.1930  0.00  0.00     0.000 OA
ATOM     11   O  IDS F 506     -20.728  54.226 167.4310  0.00  0.00     0.000 O
ATOM     12   O  IDS F 506     -23.412  56.576 167.7440  0.00  0.00     0.000 O
ATOM     14  HD  IDS F 506     -23.758  57.366 167.6700  0.00  0.00     0.000 HD
ATOM     14   O  IDS F 506     -20.287  56.959 166.0360  0.00  0.00     0.000 O
ATOM     16  HD  IDS F 506     -20.632  57.749 165.9620  0.00  0.00     0.000 HD
ATOM     16   O  IDS F 506     -18.517  58.838 168.8350  0.00  0.00     0.000 OA
ATOM     17   O  IDS F 506     -19.813  59.886 167.5700  0.00  0.00     0.000 OA
ATOM     18   C  IDS F 506     -19.575  58.882 168.2220  0.00  0.00     0.000 C
ENDROOT
BRANCH 1 19
ATOM     19  O4  SGN F 505     -20.079  54.683 169.9960  0.00  0.00     0.000 O
BRANCH 19 23
ATOM     20  C1  SGN F 505     -19.696  52.625 173.6030  0.00  0.00     0.000 C
ATOM     21  C2  SGN F 505     -21.109  52.711 173.0470  0.00  0.00     0.000 C
ATOM     22  C3  SGN F 505     -21.087  52.965 171.5330  0.00  0.00     0.000 C
ATOM     23  C4  SGN F 505     -20.277  54.287 171.3360  0.00  0.00     0.000 C
ATOM     24  C5  SGN F 505     -18.920  54.038 171.9050  0.00  0.00     0.000 C
ATOM     25  O5  SGN F 505     -19.003  53.796 173.2730  0.00  0.00     0.000 O
ATOM     26   N  SGN F 505     -21.870  51.516 173.4830  0.00  0.00     0.000 N
ATOM     28  HD  SGN F 505     -22.406  50.953 173.1010  0.00  0.00     0.000 HD
ATOM     28   S  SGN F 505     -22.540  51.541 175.0190  0.00  0.00     0.000 S
ATOM     29   O  SGN F 505     -21.503  51.951 175.9390  0.00  0.00     0.000 OA
ATOM     30   O  SGN F 505     -23.615  52.504 174.9340  0.00  0.00     0.000 OA
ATOM     31   O  SGN F 505     -23.033  50.236 175.2720  0.00  0.00     0.000 OA
ATOM     32   O  SGN F 505     -22.428  53.128 171.0880  0.00  0.00     0.000 O
ATOM     34  HD  SGN F 505     -22.965  52.566 170.7050  0.00  0.00     0.000 HD
ATOM     34   C  SGN F 505     -18.008  55.207 171.7370  0.00  0.00     0.000 C
ATOM     35   O  SGN F 505     -18.678  56.277 172.3110  0.00  0.00     0.000 O
ATOM     36   S  SGN F 505     -18.126  57.674 172.5760  0.00  0.00     0.000 S
ATOM     37   O  SGN F 505     -19.046  58.565 171.9170  0.00  0.00     0.000 OA
ATOM     38   O  SGN F 505     -18.110  57.785 174.0180  0.00  0.00     0.000 OA
ATOM     39   O  SGN F 505     -16.787  57.720 172.0020  0.00  0.00     0.000 OA
BRANCH 20 40
ATOM     40  O4  IDS F 504     -19.015  51.501 173.1130  0.00  0.00     0.000 O
BRANCH 40 44
ATOM     41  C1  IDS F 504     -17.461  48.405 172.6730  0.00  0.00     0.000 C
ATOM     42  C2  IDS F 504     -18.799  48.486 173.3660  0.00  0.00     0.000 C
ATOM     43  C3  IDS F 504     -18.826  49.567 174.5130  0.00  0.00     0.000 C
ATOM     44  C4  IDS F 504     -18.181  50.869 174.0740  0.00  0.00     0.000 C
ATOM     45  C5  IDS F 504     -16.814  50.567 173.4610  0.00  0.00     0.000 C
ATOM     46  O5  IDS F 504     -16.962  49.712 172.3500  0.00  0.00     0.000 O
ATOM     47   O  IDS F 504     -22.008  48.217 173.0390  0.00  0.00     0.000 OA
ATOM     48   O  IDS F 504     -21.472  48.285 170.7350  0.00  0.00     0.000 OA
ATOM     49   O  IDS F 504     -20.562  46.583 172.1770  0.00  0.00     0.000 OA
ATOM     50   O  IDS F 504     -19.803  48.771 172.3850  0.00  0.00     0.000 O
ATOM     51   S  IDS F 504     -21.034  47.914 172.0540  0.00  0.00     0.000 S
ATOM     52   O  IDS F 504     -18.087  49.093 175.6330  0.00  0.00     0.000 O
ATOM     54  HD  IDS F 504     -18.537  48.682 175.0170  0.00  0.00     0.000 HD
ATOM     54   C  IDS F 504     -15.982  51.799 173.0860  0.00  0.00     0.000 C
ATOM     55   O  IDS F 504     -15.946  52.213 171.9300  0.00  0.00     0.000 OA
ATOM     56   O  IDS F 504     -15.333  52.418 173.9380  0.00  0.00     0.000 OA
BRANCH 41 57
ATOM     57  O4  SGN F 503     -16.580  47.684 173.4830  0.00  0.00     0.000 O
BRANCH 57 61
ATOM     58  C1  SGN F 503     -13.578  44.951 172.9700  0.00  0.00     0.000 C
ATOM     59  C2  SGN F 503     -13.391  46.304 172.2660  0.00  0.00     0.000 C
ATOM     60  C3  SGN F 503     -14.327  47.358 172.8320  0.00  0.00     0.000 C
ATOM     61  C4  SGN F 503     -15.753  46.811 172.7880  0.00  0.00     0.000 C
ATOM     62  C5  SGN F 503     -15.812  45.429 173.4660  0.00  0.00     0.000 C
ATOM     63  O5  SGN F 503     -14.914  44.543 172.8690  0.00  0.00     0.000 O
ATOM     64   N  SGN F 503     -12.007  46.732 172.3350  0.00  0.00     0.000 N
ATOM     66  HD  SGN F 503     -12.546  46.079 172.1510  0.00  0.00     0.000 HD
ATOM     66   S  SGN F 503     -10.994  46.197 171.1760  0.00  0.00     0.000 S
ATOM     67   O  SGN F 503     -10.840  44.772 171.4040  0.00  0.00     0.000 OA
ATOM     68   O  SGN F 503     -11.596  46.481 169.8750  0.00  0.00     0.000 OA
ATOM     69   O  SGN F 503      -9.777  46.934 171.4340  0.00  0.00     0.000 OA
ATOM     70   O  SGN F 503     -14.279  48.525 172.0250  0.00  0.00     0.000 O
ATOM     72  HD  SGN F 503     -14.817  47.872 171.8410  0.00  0.00     0.000 HD
ATOM     72   C  SGN F 503     -17.149  44.743 173.3650  0.00  0.00     0.000 C
ATOM     73   O  SGN F 503     -17.436  44.581 171.9950  0.00  0.00     0.000 O
ATOM     74   S  SGN F 503     -18.281  43.428 171.3800  0.00  0.00     0.000 S
ATOM     75   O  SGN F 503     -19.296  43.067 172.3130  0.00  0.00     0.000 OA
ATOM     76   O  SGN F 503     -18.844  43.927 170.1270  0.00  0.00     0.000 OA
ATOM     77   O  SGN F 503     -17.352  42.376 171.2350  0.00  0.00     0.000 OA
BRANCH 58 78
ATOM     78  O4  IDS F 502     -13.161  45.023 174.3120  0.00  0.00     0.000 O
BRANCH 78 82
ATOM     79  C1  IDS F 502     -12.045  44.446 177.5630  0.00  0.00     0.000 C
ATOM     80  C2  IDS F 502     -11.217  45.264 176.5810  0.00  0.00     0.000 C
ATOM     81  C3  IDS F 502     -11.009  44.527 175.2570  0.00  0.00     0.000 C
ATOM     82  C4  IDS F 502     -12.345  43.965 174.7240  0.00  0.00     0.000 C
ATOM     83  C5  IDS F 502     -13.052  43.178 175.8290  0.00  0.00     0.000 C
ATOM     84  O5  IDS F 502     -13.234  43.985 176.9740  0.00  0.00     0.000 O
ATOM     85   O  IDS F 502     -11.241  43.400 178.0470  0.00  0.00     0.000 OA
ATOM     86   O  IDS F 502     -11.916  46.445 176.3000  0.00  0.00     0.000 O
ATOM     87   S  IDS F 502     -11.359  47.765 175.6760  0.00  0.00     0.000 S
ATOM     88   O  IDS F 502     -10.280  47.401 174.7970  0.00  0.00     0.000 OA
ATOM     89   O  IDS F 502     -12.462  48.369 174.9630  0.00  0.00     0.000 OA
ATOM     90   O  IDS F 502     -10.899  48.539 176.7980  0.00  0.00     0.000 OA
ATOM     91   O  IDS F 502     -10.119  43.452 175.4860  0.00  0.00     0.000 O
ATOM     93  HD  IDS F 502     -10.670  42.784 175.5100  0.00  0.00     0.000 HD
ATOM     93   O  IDS F 502     -15.410  42.894 175.8810  0.00  0.00     0.000 OA
ATOM     94   O  IDS F 502     -14.392  41.681 174.5440  0.00  0.00     0.000 OA
ATOM     95   C  IDS F 502     -14.363  42.548 175.3970  0.00  0.00     0.000 C
ENDBRANCH 78 82
ENDBRANCH 58 78
ENDBRANCH 57 61
ENDBRANCH 41 57
ENDBRANCH 40 44
ENDBRANCH 20 40
ENDBRANCH 19 23
ENDBRANCH 1 19
TORSDOF 8
ENDMDL
MODEL 2
REMARK VINA RESULT:       2.5      1.726      2.237
ROOT
ATOM      1  C1  IDS F 506     -20.422  56.487 169.4000  0.00  0.00     0.000 C
ATOM      2  C2  IDS F 506     -21.333  56.153 168.2070  0.00  0.00     0.000 C
ATOM      3  C3  IDS F 506     -21.563  57.356 167.2610  0.00  0.00     0.000 C
ATOM      4  C4  IDS F 506     -20.314  58.246 167.0610  0.00  0.00     0.000 C
ATOM      5  C5  IDS F 506     -19.542  58.384 168.3780  0.00  0.00     0.000 C
ATOM      6  O5  IDS F 506     -19.275  57.130 168.9130  0.00  0.00     0.000 O
ATOM      7   S  IDS F 506     -21.473  54.173 166.3750  0.00  0.00     0.000 S
ATOM      8   O  IDS F 506     -22.175  55.063 165.5000  0.00  0.00     0.000 OA
ATOM      9   O  IDS F 506     -20.455  53.450 165.6690  0.00  0.00     0.000 OA
ATOM     10   O  IDS F 506     -22.348  53.320 167.1440  0.00  0.00     0.000 OA
ATOM     11   O  IDS F 506     -20.760  55.119 167.4330  0.00  0.00     0.000 O
ATOM     12   O  IDS F 506     -22.611  58.164 167.7910  0.00  0.00     0.000 O
ATOM     14  HD  IDS F 506     -22.701  59.024 167.7340  0.00  0.00     0.000 HD
ATOM     14   O  IDS F 506     -19.501  57.618 166.1000  0.00  0.00     0.000 O
ATOM     16  HD  IDS F 506     -19.590  58.478 166.0430  0.00  0.00     0.000 HD
ATOM     16   O  IDS F 506     -17.271  58.817 168.9440  0.00  0.00     0.000 OA
ATOM     17   O  IDS F 506     -18.178  60.233 167.7000  0.00  0.00     0.000 OA
ATOM     18   C  IDS F 506     -18.261  59.191 168.3300  0.00  0.00     0.000 C
ENDROOT
BRANCH 1 19
ATOM     19  O4  SGN F 505     -20.026  55.306 170.0090  0.00  0.00     0.000 O
BRANCH 19 23
ATOM     20  C1  SGN F 505     -20.276  53.175 173.5860  0.00  0.00     0.000 C
ATOM     21  C2  SGN F 505     -21.606  53.613 172.9920  0.00  0.00     0.000 C
ATOM     22  C3  SGN F 505     -21.474  53.872 171.4840  0.00  0.00     0.000 C
ATOM     23  C4  SGN F 505     -20.359  54.955 171.3360  0.00  0.00     0.000 C
ATOM     24  C5  SGN F 505     -19.123  54.374 171.9370  0.00  0.00     0.000 C
ATOM     25  O5  SGN F 505     -19.306  54.144 173.2980  0.00  0.00     0.000 O
ATOM     26   N  SGN F 505     -22.651  52.636 173.3830  0.00  0.00     0.000 N
ATOM     28  HD  SGN F 505     -23.296  52.227 172.9760  0.00  0.00     0.000 HD
ATOM     28   S  SGN F 505     -23.343  52.807 174.8990  0.00  0.00     0.000 S
ATOM     29   O  SGN F 505     -22.268  52.939 175.8560  0.00  0.00     0.000 OA
ATOM     30   O  SGN F 505     -24.146  54.006 174.8030  0.00  0.00     0.000 OA
ATOM     31   O  SGN F 505     -24.150  51.661 175.1140  0.00  0.00     0.000 OA
ATOM     32   O  SGN F 505     -22.720  54.364 171.0040  0.00  0.00     0.000 O
ATOM     34  HD  SGN F 505     -23.365  53.955 170.5970  0.00  0.00     0.000 HD
ATOM     34   C  SGN F 505     -17.947  55.285 171.8180  0.00  0.00     0.000 C
ATOM     35   O  SGN F 505     -18.353  56.480 172.3930  0.00  0.00     0.000 O
ATOM     36   S  SGN F 505     -17.483  57.695 172.7000  0.00  0.00     0.000 S
ATOM     37   O  SGN F 505     -18.135  58.793 172.0320  0.00  0.00     0.000 OA
ATOM     38   O  SGN F 505     -17.487  57.782 174.1440  0.00  0.00     0.000 OA
ATOM     39   O  SGN F 505     -16.156  57.417 172.1650  0.00  0.00     0.000 OA
BRANCH 20 40
ATOM     40  O4  IDS F 504     -19.877  51.925 173.0940  0.00  0.00     0.000 O
BRANCH 40 44
ATOM     41  C1  IDS F 504     -19.061  48.563 172.6170  0.00  0.00     0.000 C
ATOM     42  C2  IDS F 504     -20.372  48.936 173.2610  0.00  0.00     0.000 C
ATOM     43  C3  IDS F 504     -20.199  49.970 174.4390  0.00  0.00     0.000 C
ATOM     44  C4  IDS F 504     -19.253  51.096 174.0650  0.00  0.00     0.000 C
ATOM     45  C5  IDS F 504     -17.967  50.499 173.4940  0.00  0.00     0.000 C
ATOM     46  O5  IDS F 504     -18.260  49.725 172.3530  0.00  0.00     0.000 O
ATOM     47   O  IDS F 504     -23.540  49.425 172.8080  0.00  0.00     0.000 OA
ATOM     48   O  IDS F 504     -22.903  49.416 170.5290  0.00  0.00     0.000 OA
ATOM     49   O  IDS F 504     -22.474  47.519 171.9510  0.00  0.00     0.000 OA
ATOM     50   O  IDS F 504     -21.241  49.467 172.2540  0.00  0.00     0.000 O
ATOM     51   S  IDS F 504     -22.620  48.926 171.8510  0.00  0.00     0.000 S
ATOM     52   O  IDS F 504     -19.638  49.314 175.5710  0.00  0.00     0.000 O
ATOM     54  HD  IDS F 504     -20.144  49.032 174.9270  0.00  0.00     0.000 HD
ATOM     54   C  IDS F 504     -16.859  51.512 173.1880  0.00  0.00     0.000 C
ATOM     55   O  IDS F 504     -16.678  51.931 172.0470  0.00  0.00     0.000 OA
ATOM     56   O  IDS F 504     -16.121  51.946 174.0820  0.00  0.00     0.000 OA
BRANCH 41 57
ATOM     57  O4  SGN F 503     -18.405  47.640 173.4370  0.00  0.00     0.000 O
BRANCH 57 61
ATOM     58  C1  SGN F 503     -16.464  44.065 172.9910  0.00  0.00     0.000 C
ATOM     59  C2  SGN F 503     -15.851  45.267 172.2550  0.00  0.00     0.000 C
ATOM     60  C3  SGN F 503     -16.388  46.581 172.7940  0.00  0.00     0.000 C
ATOM     61  C4  SGN F 503     -17.914  46.529 172.7630  0.00  0.00     0.000 C
ATOM     62  C5  SGN F 503     -18.415  45.258 173.4750  0.00  0.00     0.000 C
ATOM     63  O5  SGN F 503     -17.861  44.114 172.9000  0.00  0.00     0.000 O
ATOM     64   N  SGN F 503     -14.403  45.221 172.3130  0.00  0.00     0.000 N
ATOM     66  HD  SGN F 503     -15.126  44.776 172.1450  0.00  0.00     0.000 HD
ATOM     66   S  SGN F 503     -13.629  44.357 171.1680  0.00  0.00     0.000 S
ATOM     67   O  SGN F 503     -13.947  42.966 171.4310  0.00  0.00     0.000 OA
ATOM     68   O  SGN F 503     -14.116  44.792 169.8600  0.00  0.00     0.000 OA
ATOM     69   O  SGN F 503     -12.236  44.662 171.4080  0.00  0.00     0.000 OA
ATOM     70   O  SGN F 503     -15.968  47.650 171.9580  0.00  0.00     0.000 O
ATOM     72  HD  SGN F 503     -16.691  47.204 171.7900  0.00  0.00     0.000 HD
ATOM     72   C  SGN F 503     -19.904  45.044 173.3910  0.00  0.00     0.000 C
ATOM     73   O  SGN F 503     -20.239  44.953 172.0250  0.00  0.00     0.000 O
ATOM     74   S  SGN F 503     -21.419  44.125 171.4400  0.00  0.00     0.000 S
ATOM     75   O  SGN F 503     -22.489  44.137 172.3810  0.00  0.00     0.000 OA
ATOM     76   O  SGN F 503     -21.798  44.751 170.1740  0.00  0.00     0.000 OA
ATOM     77   O  SGN F 503     -20.886  42.824 171.3200  0.00  0.00     0.000 OA
BRANCH 58 78
ATOM     78  O4  IDS F 502     -16.036  44.029 174.3310  0.00  0.00     0.000 O
BRANCH 78 82
ATOM     79  C1  IDS F 502     -15.196  43.208 177.6130  0.00  0.00     0.000 C
ATOM     80  C2  IDS F 502     -14.126  43.592 176.6000  0.00  0.00     0.000 C
ATOM     81  C3  IDS F 502     -14.238  42.774 175.3120  0.00  0.00     0.000 C
ATOM     82  C4  IDS F 502     -15.693  42.756 174.7970  0.00  0.00     0.000 C
ATOM     83  C5  IDS F 502     -16.639  42.358 175.9320  0.00  0.00     0.000 C
ATOM     84  O5  IDS F 502     -16.477  43.222 177.0380  0.00  0.00     0.000 O
ATOM     85   O  IDS F 502     -14.859  41.953 178.1490  0.00  0.00     0.000 OA
ATOM     86   O  IDS F 502     -14.311  44.938 176.2610  0.00  0.00     0.000 O
ATOM     87   S  IDS F 502     -13.290  45.907 175.5800  0.00  0.00     0.000 S
ATOM     88   O  IDS F 502     -12.449  45.110 174.7260  0.00  0.00     0.000 OA
ATOM     89   O  IDS F 502     -14.077  46.861 174.8330  0.00  0.00     0.000 OA
ATOM     90   O  IDS F 502     -12.550  46.489 176.6690  0.00  0.00     0.000 OA
ATOM     91   O  IDS F 502     -13.836  41.449 175.5970  0.00  0.00     0.000 O
ATOM     93  HD  IDS F 502     -14.604  41.050 175.6470  0.00  0.00     0.000 HD
ATOM     93   O  IDS F 502     -18.919  43.022 175.9820  0.00  0.00     0.000 OA
ATOM     94   O  IDS F 502     -18.472  41.448 174.7080  0.00  0.00     0.000 OA
ATOM     95   C  IDS F 502     -18.097  42.272 175.5200  0.00  0.00     0.000 C
ENDBRANCH 78 82
ENDBRANCH 58 78
ENDBRANCH 57 61
ENDBRANCH 41 57
ENDBRANCH 40 44
ENDBRANCH 20 40
ENDBRANCH 19 23
ENDBRANCH 1 19
TORSDOF 8
ENDMDL
MODEL 3
REMARK VINA RESULT:       3.1      3.191      5.311
ROOT
ATOM      1  C1  IDS F 506     -20.610  52.373 172.5990  0.00  0.00     0.000 C
ATOM      2  C2  IDS F 506     -21.904  51.678 172.1440  0.00  0.00     0.000 C
ATOM      3  C3  IDS F 506     -23.040  52.671 171.7990  0.00  0.00     0.000 C
ATOM      4  C4  IDS F 506     -22.557  53.957 171.0900  0.00  0.00     0.000 C
ATOM      5  C5  IDS F 506     -21.222  54.424 171.6830  0.00  0.00     0.000 C
ATOM      6  O5  IDS F 506     -20.302  53.383 171.6750  0.00  0.00     0.000 O
ATOM      7   S  IDS F 506     -22.536  49.726 170.3860  0.00  0.00     0.000 S
ATOM      8   O  IDS F 506     -23.864  50.254 170.3120  0.00  0.00     0.000 OA
ATOM      9   O  IDS F 506     -22.029  49.414 169.0810  0.00  0.00     0.000 OA
ATOM     10   O  IDS F 506     -22.406  48.634 171.3240  0.00  0.00     0.000 OA
ATOM     11   O  IDS F 506     -21.659  50.908 170.9840  0.00  0.00     0.000 O
ATOM     12   O  IDS F 506     -23.705  53.044 173.0040  0.00  0.00     0.000 O
ATOM     14  HD  IDS F 506     -24.074  53.804 173.1950  0.00  0.00     0.000 HD
ATOM     14   O  IDS F 506     -22.386  53.648 169.7280  0.00  0.00     0.000 O
ATOM     16  HD  IDS F 506     -22.755  54.408 169.9190  0.00  0.00     0.000 HD
ATOM     16   O  IDS F 506     -19.387  55.699 170.8650  0.00  0.00     0.000 OA
ATOM     17   O  IDS F 506     -21.259  56.624 170.7360  0.00  0.00     0.000 OA
ATOM     18   C  IDS F 506     -20.594  55.651 171.0550  0.00  0.00     0.000 C
ENDROOT
BRANCH 1 19
ATOM     19  O4  SGN F 505     -19.575  51.451 172.5880  0.00  0.00     0.000 O
BRANCH 19 23
ATOM     20  C1  SGN F 505     -17.139  49.248 175.1580  0.00  0.00     0.000 C
ATOM     21  C2  SGN F 505     -18.555  48.720 174.9880  0.00  0.00     0.000 C
ATOM     22  C3  SGN F 505     -19.170  49.217 173.6720  0.00  0.00     0.000 C
ATOM     23  C4  SGN F 505     -19.109  50.777 173.7370  0.00  0.00     0.000 C
ATOM     24  C5  SGN F 505     -17.668  51.137 173.8790  0.00  0.00     0.000 C
ATOM     25  O5  SGN F 505     -17.160  50.646 175.0780  0.00  0.00     0.000 O
ATOM     26   N  SGN F 505     -18.543  47.248 175.1720  0.00  0.00     0.000 N
ATOM     28  HD  SGN F 505     -18.892  46.573 174.7570  0.00  0.00     0.000 HD
ATOM     28   S  SGN F 505     -18.582  46.663 176.7410  0.00  0.00     0.000 S
ATOM     29   O  SGN F 505     -17.562  47.362 177.4910  0.00  0.00     0.000 OA
ATOM     30   O  SGN F 505     -19.915  46.963 177.2120  0.00  0.00     0.000 OA
ATOM     31   O  SGN F 505     -18.364  45.265 176.6630  0.00  0.00     0.000 OA
ATOM     32   O  SGN F 505     -20.519  48.769 173.6110  0.00  0.00     0.000 O
ATOM     34  HD  SGN F 505     -20.868  48.094 173.1970  0.00  0.00     0.000 HD
ATOM     34   C  SGN F 505     -17.448  52.613 173.9000  0.00  0.00     0.000 C
ATOM     35   O  SGN F 505     -18.257  53.087 174.9220  0.00  0.00     0.000 O
ATOM     36   S  SGN F 505     -18.283  54.500 175.4940  0.00  0.00     0.000 S
ATOM     37   O  SGN F 505     -19.657  54.919 175.3790  0.00  0.00     0.000 OA
ATOM     38   O  SGN F 505     -17.814  54.345 176.8540  0.00  0.00     0.000 OA
ATOM     39   O  SGN F 505     -17.378  55.306 174.6840  0.00  0.00     0.000 OA
BRANCH 20 40
ATOM     40  O4  IDS F 504     -16.270  48.718 174.1940  0.00  0.00     0.000 O
BRANCH 40 44
ATOM     41  C1  IDS F 504     -13.753  47.064 172.4270  0.00  0.00     0.000 C
ATOM     42  C2  IDS F 504     -14.578  46.315 173.4430  0.00  0.00     0.000 C
ATOM     43  C3  IDS F 504     -14.661  47.062 174.8290  0.00  0.00     0.000 C
ATOM     44  C4  IDS F 504     -14.937  48.543 174.6540  0.00  0.00     0.000 C
ATOM     45  C5  IDS F 504     -13.954  49.117 173.6340  0.00  0.00     0.000 C
ATOM     46  O5  IDS F 504     -14.101  48.457 172.3970  0.00  0.00     0.000 O
ATOM     47   O  IDS F 504     -17.115  44.363 173.9250  0.00  0.00     0.000 OA
ATOM     48   O  IDS F 504     -17.623  44.980 171.6970  0.00  0.00     0.000 OA
ATOM     49   O  IDS F 504     -15.538  43.908 172.2490  0.00  0.00     0.000 OA
ATOM     50   O  IDS F 504     -15.889  46.111 172.9050  0.00  0.00     0.000 O
ATOM     51   S  IDS F 504     -16.586  44.763 172.6710  0.00  0.00     0.000 S
ATOM     52   O  IDS F 504     -13.415  46.947 175.5080  0.00  0.00     0.000 O
ATOM     54  HD  IDS F 504     -13.818  46.431 174.9410  0.00  0.00     0.000 HD
ATOM     54   C  IDS F 504     -14.024  50.637 173.4450  0.00  0.00     0.000 C
ATOM     55   O  IDS F 504     -14.642  51.132 172.5060  0.00  0.00     0.000 OA
ATOM     56   O  IDS F 504     -13.470  51.409 174.2390  0.00  0.00     0.000 OA
BRANCH 41 57
ATOM     57  O4  SGN F 503     -12.399  46.860 172.7090  0.00  0.00     0.000 O
BRANCH 57 61
ATOM     58  C1  SGN F 503      -9.030  45.791 170.6470  0.00  0.00     0.000 C
ATOM     59  C2  SGN F 503      -9.784  47.024 170.1230  0.00  0.00     0.000 C
ATOM     60  C3  SGN F 503     -10.753  47.564 171.1600  0.00  0.00     0.000 C
ATOM     61  C4  SGN F 503     -11.652  46.420 171.6240  0.00  0.00     0.000 C
ATOM     62  C5  SGN F 503     -10.795  45.219 172.0690  0.00  0.00     0.000 C
ATOM     63  O5  SGN F 503      -9.945  44.807 171.0420  0.00  0.00     0.000 O
ATOM     64   N  SGN F 503      -8.854  48.046 169.6830  0.00  0.00     0.000 N
ATOM     66  HD  SGN F 503      -9.066  47.207 169.6440  0.00  0.00     0.000 HD
ATOM     66   S  SGN F 503      -8.307  47.957 168.1490  0.00  0.00     0.000 S
ATOM     67   O  SGN F 503      -7.454  46.784 168.0950  0.00  0.00     0.000 OA
ATOM     68   O  SGN F 503      -9.459  47.836 167.2580  0.00  0.00     0.000 OA
ATOM     69   O  SGN F 503      -7.567  49.188 167.9900  0.00  0.00     0.000 OA
ATOM     70   O  SGN F 503     -11.577  48.561 170.5730  0.00  0.00     0.000 O
ATOM     72  HD  SGN F 503     -11.789  47.721 170.5350  0.00  0.00     0.000 HD
ATOM     72   C  SGN F 503     -11.587  43.988 172.4260  0.00  0.00     0.000 C
ATOM     73   O  SGN F 503     -12.320  43.614 171.2820  0.00  0.00     0.000 O
ATOM     74   S  SGN F 503     -12.732  42.160 170.9110  0.00  0.00     0.000 S
ATOM     75   O  SGN F 503     -12.977  41.440 172.1160  0.00  0.00     0.000 OA
ATOM     76   O  SGN F 503     -13.930  42.251 170.0770  0.00  0.00     0.000 OA
ATOM     77   O  SGN F 503     -11.592  41.648 170.2570  0.00  0.00     0.000 OA
BRANCH 58 78
ATOM     78  O4  IDS F 502      -8.166  46.144 171.7000  0.00  0.00     0.000 O
BRANCH 78 82
ATOM     79  C1  IDS F 502      -5.608  46.487 174.0420  0.00  0.00     0.000 C
ATOM     80  C2  IDS F 502      -5.792  47.505 172.9260  0.00  0.00     0.000 C
ATOM     81  C3  IDS F 502      -5.870  46.837 171.5510  0.00  0.00     0.000 C
ATOM     82  C4  IDS F 502      -6.863  45.654 171.5700  0.00  0.00     0.000 C
ATOM     83  C5  IDS F 502      -6.546  44.732 172.7490  0.00  0.00     0.000 C
ATOM     84  O5  IDS F 502      -6.559  45.457 173.9620  0.00  0.00     0.000 O
ATOM     85   O  IDS F 502      -4.288  46.008 173.9830  0.00  0.00     0.000 OA
ATOM     86   O  IDS F 502      -7.005  48.171 173.1390  0.00  0.00     0.000 O
ATOM     87   S  IDS F 502      -7.476  49.531 172.5270  0.00  0.00     0.000 S
ATOM     88   O  IDS F 502      -6.867  49.649 171.2290  0.00  0.00     0.000 OA
ATOM     89   O  IDS F 502      -8.917  49.458 172.4480  0.00  0.00     0.000 OA
ATOM     90   O  IDS F 502      -6.993  50.533 173.4390  0.00  0.00     0.000 OA
ATOM     91   O  IDS F 502      -4.584  46.350 171.2240  0.00  0.00     0.000 O
ATOM     93  HD  IDS F 502      -4.680  45.506 171.3880  0.00  0.00     0.000 HD
ATOM     93   O  IDS F 502      -8.193  43.356 173.7680  0.00  0.00     0.000 OA
ATOM     94   O  IDS F 502      -7.433  42.662 171.9680  0.00  0.00     0.000 OA
ATOM     95   C  IDS F 502      -7.443  43.512 172.8380  0.00  0.00     0.000 C
ENDBRANCH 78 82
ENDBRANCH 58 78
ENDBRANCH 57 61
ENDBRANCH 41 57
ENDBRANCH 40 44
ENDBRANCH 20 40
ENDBRANCH 19 23
ENDBRANCH 1 19
TORSDOF 8
ENDMDL
MODEL 4
REMARK VINA RESULT:       3.1      2.040      3.097
ROOT
ATOM      1  C1  IDS F 506     -20.252  57.339 169.1630  0.00  0.00     0.000 C
ATOM      2  C2  IDS F 506     -21.326  56.328 168.7270  0.00  0.00     0.000 C
ATOM      3  C3  IDS F 506     -22.411  56.948 167.8140  0.00  0.00     0.000 C
ATOM      4  C4  IDS F 506     -21.866  57.988 166.8070  0.00  0.00     0.000 C
ATOM      5  C5  IDS F 506     -20.771  58.838 167.4600  0.00  0.00     0.000 C
ATOM      6  O5  IDS F 506     -19.799  58.021 168.0240  0.00  0.00     0.000 O
ATOM      7   S  IDS F 506     -21.327  53.827 167.7030  0.00  0.00     0.000 S
ATOM      8   O  IDS F 506     -22.630  54.073 167.1640  0.00  0.00     0.000 OA
ATOM      9   O  IDS F 506     -20.479  53.190 166.7380  0.00  0.00     0.000 OA
ATOM     10   O  IDS F 506     -21.355  53.146 168.9760  0.00  0.00     0.000 OA
ATOM     11   O  IDS F 506     -20.731  55.269 168.0040  0.00  0.00     0.000 O
ATOM     12   O  IDS F 506     -23.390  57.584 168.6320  0.00  0.00     0.000 O
ATOM     14  HD  IDS F 506     -23.856  58.291 168.4520  0.00  0.00     0.000 HD
ATOM     14   O  IDS F 506     -21.328  57.277 165.7190  0.00  0.00     0.000 O
ATOM     16  HD  IDS F 506     -21.793  57.985 165.5390  0.00  0.00     0.000 HD
ATOM     16   O  IDS F 506     -18.895  60.056 166.6450  0.00  0.00     0.000 OA
ATOM     17   O  IDS F 506     -20.739  60.562 165.7970  0.00  0.00     0.000 OA
ATOM     18   C  IDS F 506     -20.103  59.875 166.5790  0.00  0.00     0.000 C
ENDROOT
BRANCH 1 19
ATOM     19  O4  SGN F 505     -19.178  56.649 169.7060  0.00  0.00     0.000 O
BRANCH 19 23
ATOM     20  C1  SGN F 505     -17.810  55.606 173.5040  0.00  0.00     0.000 C
ATOM     21  C2  SGN F 505     -19.136  56.349 173.4690  0.00  0.00     0.000 C
ATOM     22  C3  SGN F 505     -19.811  56.200 172.0990  0.00  0.00     0.000 C
ATOM     23  C4  SGN F 505     -18.783  56.747 171.0570  0.00  0.00     0.000 C
ATOM     24  C5  SGN F 505     -17.556  55.909 171.1960  0.00  0.00     0.000 C
ATOM     25  O5  SGN F 505     -16.998  56.069 172.4610  0.00  0.00     0.000 O
ATOM     26   N  SGN F 505     -19.952  55.928 174.6330  0.00  0.00     0.000 N
ATOM     28  HD  SGN F 505     -20.779  55.699 174.7560  0.00  0.00     0.000 HD
ATOM     28   S  SGN F 505     -19.648  56.670 176.1040  0.00  0.00     0.000 S
ATOM     29   O  SGN F 505     -18.221  56.615 176.3310  0.00  0.00     0.000 OA
ATOM     30   O  SGN F 505     -20.128  58.024 175.9380  0.00  0.00     0.000 OA
ATOM     31   O  SGN F 505     -20.400  55.971 177.0800  0.00  0.00     0.000 OA
ATOM     32   O  SGN F 505     -20.995  56.989 172.0950  0.00  0.00     0.000 O
ATOM     34  HD  SGN F 505     -21.822  56.760 172.2180  0.00  0.00     0.000 HD
ATOM     34   C  SGN F 505     -16.495  56.283 170.2160  0.00  0.00     0.000 C
ATOM     35   O  SGN F 505     -16.282  57.640 170.4100  0.00  0.00     0.000 O
ATOM     36   S  SGN F 505     -15.178  58.495 169.7980  0.00  0.00     0.000 S
ATOM     37   O  SGN F 505     -15.870  59.576 169.1430  0.00  0.00     0.000 OA
ATOM     38   O  SGN F 505     -14.369  58.897 170.9280  0.00  0.00     0.000 OA
ATOM     39   O  SGN F 505     -14.447  57.646 168.8660  0.00  0.00     0.000 OA
BRANCH 20 40
ATOM     40  O4  IDS F 504     -17.992  54.219 173.4010  0.00  0.00     0.000 O
BRANCH 40 44
ATOM     41  C1  IDS F 504     -17.890  50.731 173.5140  0.00  0.00     0.000 C
ATOM     42  C2  IDS F 504     -18.701  51.495 174.5310  0.00  0.00     0.000 C
ATOM     43  C3  IDS F 504     -17.883  52.657 175.2130  0.00  0.00     0.000 C
ATOM     44  C4  IDS F 504     -17.092  53.459 174.1970  0.00  0.00     0.000 C
ATOM     45  C5  IDS F 504     -16.296  52.500 173.3130  0.00  0.00     0.000 C
ATOM     46  O5  IDS F 504     -17.172  51.619 172.6460  0.00  0.00     0.000 O
ATOM     47   O  IDS F 504     -21.638  52.586 175.3470  0.00  0.00     0.000 OA
ATOM     48   O  IDS F 504     -22.132  52.030 173.1010  0.00  0.00     0.000 OA
ATOM     49   O  IDS F 504     -21.321  50.369 174.6460  0.00  0.00     0.000 OA
ATOM     50   O  IDS F 504     -19.867  52.017 173.8840  0.00  0.00     0.000 O
ATOM     51   S  IDS F 504     -21.330  51.732 174.2570  0.00  0.00     0.000 S
ATOM     52   O  IDS F 504     -16.944  52.105 176.1300  0.00  0.00     0.000 O
ATOM     54  HD  IDS F 504     -17.719  51.832 175.8570  0.00  0.00     0.000 HD
ATOM     54   C  IDS F 504     -15.344  53.170 172.3160  0.00  0.00     0.000 C
ATOM     55   O  IDS F 504     -15.663  53.328 171.1400  0.00  0.00     0.000 OA
ATOM     56   O  IDS F 504     -14.231  53.582 172.6690  0.00  0.00     0.000 OA
BRANCH 41 57
ATOM     57  O4  SGN F 503     -17.044  49.847 174.1890  0.00  0.00     0.000 O
BRANCH 57 61
ATOM     58  C1  SGN F 503     -15.543  46.084 173.6070  0.00  0.00     0.000 C
ATOM     59  C2  SGN F 503     -15.199  47.126 172.5310  0.00  0.00     0.000 C
ATOM     60  C3  SGN F 503     -15.448  48.540 173.0270  0.00  0.00     0.000 C
ATOM     61  C4  SGN F 503     -16.879  48.621 173.5550  0.00  0.00     0.000 C
ATOM     62  C5  SGN F 503     -17.131  47.498 174.5790  0.00  0.00     0.000 C
ATOM     63  O5  SGN F 503     -16.872  46.247 174.0180  0.00  0.00     0.000 O
ATOM     64   N  SGN F 503     -13.834  46.958 172.0710  0.00  0.00     0.000 N
ATOM     66  HD  SGN F 503     -14.585  46.562 172.2420  0.00  0.00     0.000 HD
ATOM     66   S  SGN F 503     -13.571  45.894 170.8640  0.00  0.00     0.000 S
ATOM     67   O  SGN F 503     -13.823  44.580 171.4260  0.00  0.00     0.000 OA
ATOM     68   O  SGN F 503     -14.488  46.207 169.7700  0.00  0.00     0.000 OA
ATOM     69   O  SGN F 503     -12.177  46.100 170.5390  0.00  0.00     0.000 OA
ATOM     70   O  SGN F 503     -15.324  49.456 171.9490  0.00  0.00     0.000 O
ATOM     72  HD  SGN F 503     -16.075  49.059 172.1200  0.00  0.00     0.000 HD
ATOM     72   C  SGN F 503     -18.553  47.410 175.0680  0.00  0.00     0.000 C
ATOM     73   O  SGN F 503     -19.371  47.182 173.9430  0.00  0.00     0.000 O
ATOM     74   S  SGN F 503     -20.714  46.397 173.9500  0.00  0.00     0.000 S
ATOM     75   O  SGN F 503     -21.361  46.621 175.2000  0.00  0.00     0.000 OA
ATOM     76   O  SGN F 503     -21.509  46.895 172.8290  0.00  0.00     0.000 OA
ATOM     77   O  SGN F 503     -20.314  45.049 173.8400  0.00  0.00     0.000 OA
BRANCH 58 78
ATOM     78  O4  IDS F 502     -14.653  46.175 174.6930  0.00  0.00     0.000 O
BRANCH 78 82
ATOM     79  C1  IDS F 502     -12.672  45.666 177.5150  0.00  0.00     0.000 C
ATOM     80  C2  IDS F 502     -12.046  45.940 176.1550  0.00  0.00     0.000 C
ATOM     81  C3  IDS F 502     -12.591  45.002 175.0760  0.00  0.00     0.000 C
ATOM     82  C4  IDS F 502     -14.133  44.949 175.1210  0.00  0.00     0.000 C
ATOM     83  C5  IDS F 502     -14.599  44.671 176.5520  0.00  0.00     0.000 C
ATOM     84  O5  IDS F 502     -14.074  45.636 177.4400  0.00  0.00     0.000 O
ATOM     85   O  IDS F 502     -12.133  44.465 178.0100  0.00  0.00     0.000 OA
ATOM     86   O  IDS F 502     -12.375  47.249 175.7810  0.00  0.00     0.000 O
ATOM     87   S  IDS F 502     -11.691  48.137 174.6910  0.00  0.00     0.000 S
ATOM     88   O  IDS F 502     -11.191  47.254 173.6710  0.00  0.00     0.000 OA
ATOM     89   O  IDS F 502     -12.718  49.022 174.1910  0.00  0.00     0.000 OA
ATOM     90   O  IDS F 502     -10.625  48.814 175.3820  0.00  0.00     0.000 OA
ATOM     91   O  IDS F 502     -12.080  43.707 175.3190  0.00  0.00     0.000 O
ATOM     93  HD  IDS F 502     -12.768  43.323 175.6790  0.00  0.00     0.000 HD
ATOM     93   O  IDS F 502     -16.727  45.358 177.3540  0.00  0.00     0.000 OA
ATOM     94   O  IDS F 502     -16.725  43.665 176.1580  0.00  0.00     0.000 OA
ATOM     95   C  IDS F 502     -16.105  44.560 176.7010  0.00  0.00     0.000 C
ENDBRANCH 78 82
ENDBRANCH 58 78
ENDBRANCH 57 61
ENDBRANCH 41 57
ENDBRANCH 40 44
ENDBRANCH 20 40
ENDBRANCH 19 23
ENDBRANCH 1 19
TORSDOF 8
ENDMDL
MODEL 5
REMARK VINA RESULT:       3.9      2.515      3.452
ROOT
ATOM      1  C1  IDS F 506     -20.630  55.248 171.9890  0.00  0.00     0.000 C
ATOM      2  C2  IDS F 506     -21.783  54.672 171.1500  0.00  0.00     0.000 C
ATOM      3  C3  IDS F 506     -22.786  55.750 170.6720  0.00  0.00     0.000 C
ATOM      4  C4  IDS F 506     -22.124  57.089 170.2700  0.00  0.00     0.000 C
ATOM      5  C5  IDS F 506     -20.970  57.419 171.2230  0.00  0.00     0.000 C
ATOM      6  O5  IDS F 506     -20.091  56.346 171.3040  0.00  0.00     0.000 O
ATOM      7   S  IDS F 506     -21.994  52.976 169.0580  0.00  0.00     0.000 S
ATOM      8   O  IDS F 506     -23.256  53.569 168.7340  0.00  0.00     0.000 OA
ATOM      9   O  IDS F 506     -21.188  52.801 167.8850  0.00  0.00     0.000 OA
ATOM     10   O  IDS F 506     -22.114  51.775 169.8510  0.00  0.00     0.000 OA
ATOM     11   O  IDS F 506     -21.273  54.037 169.9950  0.00  0.00     0.000 O
ATOM     12   O  IDS F 506     -23.720  56.004 171.7180  0.00  0.00     0.000 O
ATOM     14  HD  IDS F 506     -24.113  56.752 171.9100  0.00  0.00     0.000 HD
ATOM     14   O  IDS F 506     -21.630  56.938 168.9620  0.00  0.00     0.000 O
ATOM     16  HD  IDS F 506     -22.024  57.685 169.1540  0.00  0.00     0.000 HD
ATOM     16   O  IDS F 506     -18.971  58.699 171.0410  0.00  0.00     0.000 OA
ATOM     17   O  IDS F 506     -20.740  59.717 170.5840  0.00  0.00     0.000 OA
ATOM     18   C  IDS F 506     -20.189  58.683 170.9270  0.00  0.00     0.000 C
ENDROOT
BRANCH 1 19
ATOM     19  O4  SGN F 505     -19.637  54.287 172.1100  0.00  0.00     0.000 O
BRANCH 19 23
ATOM     20  C1  SGN F 505     -18.072  51.453 174.7390  0.00  0.00     0.000 C
ATOM     21  C2  SGN F 505     -19.540  51.273 174.3840  0.00  0.00     0.000 C
ATOM     22  C3  SGN F 505     -19.870  51.966 173.0540  0.00  0.00     0.000 C
ATOM     23  C4  SGN F 505     -19.472  53.465 173.2460  0.00  0.00     0.000 C
ATOM     24  C5  SGN F 505     -18.014  53.477 173.5630  0.00  0.00     0.000 C
ATOM     25  O5  SGN F 505     -17.773  52.821 174.7660  0.00  0.00     0.000 O
ATOM     26   N  SGN F 505     -19.878  49.832 174.4530  0.00  0.00     0.000 N
ATOM     28  HD  SGN F 505     -20.317  49.276 173.9550  0.00  0.00     0.000 HD
ATOM     28   S  SGN F 505     -20.230  49.190 175.9610  0.00  0.00     0.000 S
ATOM     29   O  SGN F 505     -19.175  49.596 176.8630  0.00  0.00     0.000 OA
ATOM     30   O  SGN F 505     -21.509  49.763 176.3140  0.00  0.00     0.000 OA
ATOM     31   O  SGN F 505     -20.321  47.785 175.7970  0.00  0.00     0.000 OA
ATOM     32   O  SGN F 505     -21.268  51.844 172.8210  0.00  0.00     0.000 O
ATOM     34  HD  SGN F 505     -21.707  51.289 172.3220  0.00  0.00     0.000 HD
ATOM     34   C  SGN F 505     -17.475  54.860 173.7200  0.00  0.00     0.000 C
ATOM     35   O  SGN F 505     -18.273  55.453 174.6870  0.00  0.00     0.000 O
ATOM     36   S  SGN F 505     -18.051  56.803 175.3610  0.00  0.00     0.000 S
ATOM     37   O  SGN F 505     -19.274  57.532 175.1380  0.00  0.00     0.000 OA
ATOM     38   O  SGN F 505     -17.792  56.474 176.7450  0.00  0.00     0.000 OA
ATOM     39   O  SGN F 505     -16.901  57.420 174.7130  0.00  0.00     0.000 OA
BRANCH 20 40
ATOM     40  O4  IDS F 504     -17.236  50.788 173.8310  0.00  0.00     0.000 O
BRANCH 40 44
ATOM     41  C1  IDS F 504     -15.147  48.516 172.1980  0.00  0.00     0.000 C
ATOM     42  C2  IDS F 504     -16.358  48.022 172.9480  0.00  0.00     0.000 C
ATOM     43  C3  IDS F 504     -16.447  48.603 174.4110  0.00  0.00     0.000 C
ATOM     44  C4  IDS F 504     -16.158  50.092 174.4440  0.00  0.00     0.000 C
ATOM     45  C5  IDS F 504     -14.861  50.366 173.6850  0.00  0.00     0.000 C
ATOM     46  O5  IDS F 504     -14.983  49.934 172.3480  0.00  0.00     0.000 O
ATOM     47   O  IDS F 504     -19.453  47.098 172.7320  0.00  0.00     0.000 OA
ATOM     48   O  IDS F 504     -19.278  48.080 170.5870  0.00  0.00     0.000 OA
ATOM     49   O  IDS F 504     -17.835  46.268 171.2490  0.00  0.00     0.000 OA
ATOM     50   O  IDS F 504     -17.529  48.368 172.2010  0.00  0.00     0.000 O
ATOM     51   S  IDS F 504     -18.587  47.400 171.6500  0.00  0.00     0.000 S
ATOM     52   O  IDS F 504     -15.472  47.972 175.2350  0.00  0.00     0.000 O
ATOM     54  HD  IDS F 504     -15.910  47.699 174.5390  0.00  0.00     0.000 HD
ATOM     54   C  IDS F 504     -14.368  51.817 173.7390  0.00  0.00     0.000 C
ATOM     55   O  IDS F 504     -14.585  52.597 172.8150  0.00  0.00     0.000 OA
ATOM     56   O  IDS F 504     -13.747  52.247 174.7200  0.00  0.00     0.000 OA
BRANCH 41 57
ATOM     57  O4  SGN F 503     -14.027  47.803 172.6360  0.00  0.00     0.000 O
BRANCH 57 61
ATOM     58  C1  SGN F 503     -10.774  46.110 170.8190  0.00  0.00     0.000 C
ATOM     59  C2  SGN F 503     -11.295  47.416 170.1980  0.00  0.00     0.000 C
ATOM     60  C3  SGN F 503     -12.215  48.156 171.1530  0.00  0.00     0.000 C
ATOM     61  C4  SGN F 503     -13.307  47.193 171.6160  0.00  0.00     0.000 C
ATOM     62  C5  SGN F 503     -12.675  45.898 172.1620  0.00  0.00     0.000 C
ATOM     63  O5  SGN F 503     -11.852  45.304 171.2060  0.00  0.00     0.000 O
ATOM     64   N  SGN F 503     -10.194  48.254 169.7660  0.00  0.00     0.000 N
ATOM     66  HD  SGN F 503     -10.534  47.458 169.7540  0.00  0.00     0.000 HD
ATOM     66   S  SGN F 503      -9.592  47.998 168.2720  0.00  0.00     0.000 S
ATOM     67   O  SGN F 503      -8.935  46.705 168.3200  0.00  0.00     0.000 OA
ATOM     68   O  SGN F 503     -10.704  48.013 167.3230  0.00  0.00     0.000 OA
ATOM     69   O  SGN F 503      -8.658  49.088 168.1000  0.00  0.00     0.000 OA
ATOM     70   O  SGN F 503     -12.840  49.237 170.4760  0.00  0.00     0.000 O
ATOM     72  HD  SGN F 503     -13.180  48.440 170.4640  0.00  0.00     0.000 HD
ATOM     72   C  SGN F 503     -13.670  44.828 172.5290  0.00  0.00     0.000 C
ATOM     73   O  SGN F 503     -14.396  44.513 171.3630  0.00  0.00     0.000 O
ATOM     74   S  SGN F 503     -15.016  43.124 171.0350  0.00  0.00     0.000 S
ATOM     75   O  SGN F 503     -15.432  42.516 172.2560  0.00  0.00     0.000 OA
ATOM     76   O  SGN F 503     -16.141  43.357 170.1310  0.00  0.00     0.000 OA
ATOM     77   O  SGN F 503     -13.942  42.405 170.4710  0.00  0.00     0.000 OA
BRANCH 58 78
ATOM     78  O4  IDS F 502      -9.917  46.379 171.9030  0.00  0.00     0.000 O
BRANCH 78 82
ATOM     79  C1  IDS F 502      -7.547  46.323 174.4580  0.00  0.00     0.000 C
ATOM     80  C2  IDS F 502      -7.415  47.284 173.2840  0.00  0.00     0.000 C
ATOM     81  C3  IDS F 502      -7.522  46.561 171.9400  0.00  0.00     0.000 C
ATOM     82  C4  IDS F 502      -8.744  45.618 171.9180  0.00  0.00     0.000 C
ATOM     83  C5  IDS F 502      -8.732  44.727 173.1620  0.00  0.00     0.000 C
ATOM     84  O5  IDS F 502      -8.688  45.514 174.3340  0.00  0.00     0.000 O
ATOM     85   O  IDS F 502      -6.361  45.574 174.5440  0.00  0.00     0.000 OA
ATOM     86   O  IDS F 502      -8.470  48.203 173.3530  0.00  0.00     0.000 O
ATOM     87   S  IDS F 502      -8.584  49.589 172.6400  0.00  0.00     0.000 S
ATOM     88   O  IDS F 502      -7.859  49.494 171.4010  0.00  0.00     0.000 OA
ATOM     89   O  IDS F 502      -9.996  49.817 172.4290  0.00  0.00     0.000 OA
ATOM     90   O  IDS F 502      -7.973  50.524 173.5480  0.00  0.00     0.000 OA
ATOM     91   O  IDS F 502      -6.348  45.795 171.7570  0.00  0.00     0.000 O
ATOM     93  HD  IDS F 502      -6.637  45.002 171.9490  0.00  0.00     0.000 HD
ATOM     93   O  IDS F 502     -10.714  43.796 174.0810  0.00  0.00     0.000 OA
ATOM     94   O  IDS F 502      -9.977  42.844 172.3930  0.00  0.00     0.000 OA
ATOM     95   C  IDS F 502      -9.875  43.731 173.2200  0.00  0.00     0.000 C
ENDBRANCH 78 82
ENDBRANCH 58 78
ENDBRANCH 57 61
ENDBRANCH 41 57
ENDBRANCH 40 44
ENDBRANCH 20 40
ENDBRANCH 19 23
ENDBRANCH 1 19
TORSDOF 8
ENDMDL
MODEL 6
REMARK VINA RESULT:       4.1      2.206      3.088
ROOT
ATOM      1  C1  IDS F 506     -18.662  57.538 168.9940  0.00  0.00     0.000 C
ATOM      2  C2  IDS F 506     -19.750  57.284 167.9380  0.00  0.00     0.000 C
ATOM      3  C3  IDS F 506     -19.797  58.371 166.8370  0.00  0.00     0.000 C
ATOM      4  C4  IDS F 506     -18.405  58.893 166.4110  0.00  0.00     0.000 C
ATOM      5  C5  IDS F 506     -17.484  59.010 167.6300  0.00  0.00     0.000 C
ATOM      6  O5  IDS F 506     -17.457  57.810 168.3310  0.00  0.00     0.000 O
ATOM      7   S  IDS F 506     -20.544  55.175 166.4470  0.00  0.00     0.000 S
ATOM      8   O  IDS F 506     -21.112  56.087 165.5010  0.00  0.00     0.000 OA
ATOM      9   O  IDS F 506     -19.804  54.138 165.7880  0.00  0.00     0.000 OA
ATOM     10   O  IDS F 506     -21.505  54.671 167.4020  0.00  0.00     0.000 OA
ATOM     11   O  IDS F 506     -19.521  56.048 167.2920  0.00  0.00     0.000 O
ATOM     12   O  IDS F 506     -20.565  59.473 167.3130  0.00  0.00     0.000 O
ATOM     14  HD  IDS F 506     -20.458  60.314 167.1320  0.00  0.00     0.000 HD
ATOM     14   O  IDS F 506     -17.869  57.964 165.5010  0.00  0.00     0.000 O
ATOM     16  HD  IDS F 506     -17.762  58.804 165.3190  0.00  0.00     0.000 HD
ATOM     16   O  IDS F 506     -15.126  58.943 167.9540  0.00  0.00     0.000 OA
ATOM     17   O  IDS F 506     -15.810  60.362 166.5770  0.00  0.00     0.000 OA
ATOM     18   C  IDS F 506     -16.063  59.465 167.3650  0.00  0.00     0.000 C
ENDROOT
BRANCH 1 19
ATOM     19  O4  SGN F 505     -18.488  56.386 169.7470  0.00  0.00     0.000 O
BRANCH 19 23
ATOM     20  C1  SGN F 505     -18.744  54.907 173.6380  0.00  0.00     0.000 C
ATOM     21  C2  SGN F 505     -20.047  55.421 173.0480  0.00  0.00     0.000 C
ATOM     22  C3  SGN F 505     -19.994  55.416 171.5140  0.00  0.00     0.000 C
ATOM     23  C4  SGN F 505     -18.764  56.300 171.1290  0.00  0.00     0.000 C
ATOM     24  C5  SGN F 505     -17.571  55.659 171.7560  0.00  0.00     0.000 C
ATOM     25  O5  SGN F 505     -17.683  55.676 173.1430  0.00  0.00     0.000 O
ATOM     26   N  SGN F 505     -21.175  54.671 173.6500  0.00  0.00     0.000 N
ATOM     28  HD  SGN F 505     -21.895  54.294 173.3500  0.00  0.00     0.000 HD
ATOM     28   S  SGN F 505     -21.729  55.174 175.1490  0.00  0.00     0.000 S
ATOM     29   O  SGN F 505     -20.579  55.309 176.0140  0.00  0.00     0.000 OA
ATOM     30   O  SGN F 505     -22.379  56.440 174.8950  0.00  0.00     0.000 OA
ATOM     31   O  SGN F 505     -22.656  54.198 175.5930  0.00  0.00     0.000 OA
ATOM     32   O  SGN F 505     -21.199  55.991 171.0220  0.00  0.00     0.000 O
ATOM     34  HD  SGN F 505     -21.918  55.614 170.7220  0.00  0.00     0.000 HD
ATOM     34   C  SGN F 505     -16.302  56.371 171.4250  0.00  0.00     0.000 C
ATOM     35   O  SGN F 505     -16.511  57.686 171.8120  0.00  0.00     0.000 O
ATOM     36   S  SGN F 505     -15.475  58.804 171.8670  0.00  0.00     0.000 S
ATOM     37   O  SGN F 505     -16.030  59.860 171.0590  0.00  0.00     0.000 OA
ATOM     38   O  SGN F 505     -15.363  59.120 173.2740  0.00  0.00     0.000 OA
ATOM     39   O  SGN F 505     -14.236  58.266 171.3190  0.00  0.00     0.000 OA
BRANCH 20 40
ATOM     40  O4  IDS F 504     -18.542  53.551 173.3430  0.00  0.00     0.000 O
BRANCH 40 44
ATOM     41  C1  IDS F 504     -17.953  50.109 173.3440  0.00  0.00     0.000 C
ATOM     42  C2  IDS F 504     -19.084  50.681 174.1620  0.00  0.00     0.000 C
ATOM     43  C3  IDS F 504     -18.630  51.890 175.0660  0.00  0.00     0.000 C
ATOM     44  C4  IDS F 504     -17.751  52.864 174.3030  0.00  0.00     0.000 C
ATOM     45  C5  IDS F 504     -16.637  52.088 173.6020  0.00  0.00     0.000 C
ATOM     46  O5  IDS F 504     -17.191  51.148 172.7100  0.00  0.00     0.000 O
ATOM     47   O  IDS F 504     -22.258  51.303 174.2830  0.00  0.00     0.000 OA
ATOM     48   O  IDS F 504     -22.125  50.850 171.9640  0.00  0.00     0.000 OA
ATOM     49   O  IDS F 504     -21.461  49.207 173.5960  0.00  0.00     0.000 OA
ATOM     50   O  IDS F 504     -20.130  51.086 173.2720  0.00  0.00     0.000 O
ATOM     51   S  IDS F 504     -21.581  50.581 173.2680  0.00  0.00     0.000 S
ATOM     52   O  IDS F 504     -17.861  51.405 176.1610  0.00  0.00     0.000 O
ATOM     54  HD  IDS F 504     -18.501  51.051 175.6980  0.00  0.00     0.000 HD
ATOM     54   C  IDS F 504     -15.588  52.951 172.8930  0.00  0.00     0.000 C
ATOM     55   O  IDS F 504     -15.643  53.150 171.6810  0.00  0.00     0.000 OA
ATOM     56   O  IDS F 504     -14.663  53.482 173.5200  0.00  0.00     0.000 OA
BRANCH 41 57
ATOM     57  O4  SGN F 503     -17.167  49.301 174.1690  0.00  0.00     0.000 O
BRANCH 57 61
ATOM     58  C1  SGN F 503     -15.589  45.543 173.7980  0.00  0.00     0.000 C
ATOM     59  C2  SGN F 503     -15.812  46.318 172.4900  0.00  0.00     0.000 C
ATOM     60  C3  SGN F 503     -16.009  47.801 172.7500  0.00  0.00     0.000 C
ATOM     61  C4  SGN F 503     -17.121  47.967 173.7830  0.00  0.00     0.000 C
ATOM     62  C5  SGN F 503     -16.824  47.103 175.0240  0.00  0.00     0.000 C
ATOM     63  O5  SGN F 503     -16.662  45.764 174.6700  0.00  0.00     0.000 O
ATOM     64   N  SGN F 503     -14.724  46.082 171.5610  0.00  0.00     0.000 N
ATOM     66  HD  SGN F 503     -15.298  45.717 172.0970  0.00  0.00     0.000 HD
ATOM     66   S  SGN F 503     -14.830  44.775 170.5920  0.00  0.00     0.000 S
ATOM     67   O  SGN F 503     -14.691  43.620 171.4590  0.00  0.00     0.000 OA
ATOM     68   O  SGN F 503     -16.130  44.805 169.9240  0.00  0.00     0.000 OA
ATOM     69   O  SGN F 503     -13.706  44.935 169.6970  0.00  0.00     0.000 OA
ATOM     70   O  SGN F 503     -16.421  48.447 171.5530  0.00  0.00     0.000 O
ATOM     72  HD  SGN F 503     -16.996  48.082 172.0890  0.00  0.00     0.000 HD
ATOM     72   C  SGN F 503     -17.924  47.096 176.0540  0.00  0.00     0.000 C
ATOM     73   O  SGN F 503     -19.083  46.595 175.4270  0.00  0.00     0.000 O
ATOM     74   S  SGN F 503     -20.218  45.800 176.1350  0.00  0.00     0.000 S
ATOM     75   O  SGN F 503     -20.349  46.290 177.4670  0.00  0.00     0.000 OA
ATOM     76   O  SGN F 503     -21.438  46.007 175.3560  0.00  0.00     0.000 OA
ATOM     77   O  SGN F 503     -19.739  44.473 176.1450  0.00  0.00     0.000 OA
BRANCH 58 78
ATOM     78  O4  IDS F 502     -14.363  45.903 174.3890  0.00  0.00     0.000 O
BRANCH 78 82
ATOM     79  C1  IDS F 502     -11.278  46.109 175.9980  0.00  0.00     0.000 C
ATOM     80  C2  IDS F 502     -11.369  46.035 174.4800  0.00  0.00     0.000 C
ATOM     81  C3  IDS F 502     -12.232  44.859 174.0170  0.00  0.00     0.000 C
ATOM     82  C4  IDS F 502     -13.570  44.822 174.7850  0.00  0.00     0.000 C
ATOM     83  C5  IDS F 502     -13.305  44.910 176.2900  0.00  0.00     0.000 C
ATOM     84  O5  IDS F 502     -12.549  46.065 176.5930  0.00  0.00     0.000 O
ATOM     85   O  IDS F 502     -10.441  45.068 176.4360  0.00  0.00     0.000 OA
ATOM     86   O  IDS F 502     -11.979  47.210 174.0230  0.00  0.00     0.000 O
ATOM     87   S  IDS F 502     -11.966  47.797 172.5740  0.00  0.00     0.000 S
ATOM     88   O  IDS F 502     -11.884  46.687 171.6620  0.00  0.00     0.000 OA
ATOM     89   O  IDS F 502     -13.202  48.532 172.4280  0.00  0.00     0.000 OA
ATOM     90   O  IDS F 502     -10.789  48.623 172.5200  0.00  0.00     0.000 OA
ATOM     91   O  IDS F 502     -11.522  43.664 174.2740  0.00  0.00     0.000 O
ATOM     93  HD  IDS F 502     -11.924  43.383 174.9880  0.00  0.00     0.000 HD
ATOM     93   O  IDS F 502     -14.904  45.780 177.8160  0.00  0.00     0.000 OA
ATOM     94   O  IDS F 502     -15.249  43.843 177.1650  0.00  0.00     0.000 OA
ATOM     95   C  IDS F 502     -14.557  44.843 177.1430  0.00  0.00     0.000 C
ENDBRANCH 78 82
ENDBRANCH 58 78
ENDBRANCH 57 61
ENDBRANCH 41 57
ENDBRANCH 40 44
ENDBRANCH 20 40
ENDBRANCH 19 23
ENDBRANCH 1 19
TORSDOF 8
ENDMDL
MODEL 7
REMARK VINA RESULT:       4.2      3.610      6.546
ROOT
ATOM      1  C1  IDS F 506     -18.941  52.737 172.9510  0.00  0.00     0.000 C
ATOM      2  C2  IDS F 506     -20.351  52.199 172.6530  0.00  0.00     0.000 C
ATOM      3  C3  IDS F 506     -21.388  53.319 172.3970  0.00  0.00     0.000 C
ATOM      4  C4  IDS F 506     -20.830  54.521 171.6000  0.00  0.00     0.000 C
ATOM      5  C5  IDS F 506     -19.394  54.830 172.0380  0.00  0.00     0.000 C
ATOM      6  O5  IDS F 506     -18.613  53.683 171.9680  0.00  0.00     0.000 O
ATOM      7   S  IDS F 506     -21.398  50.307 171.0330  0.00  0.00     0.000 S
ATOM      8   O  IDS F 506     -22.653  50.995 171.0800  0.00  0.00     0.000 OA
ATOM      9   O  IDS F 506     -21.074  49.911 169.6940  0.00  0.00     0.000 OA
ATOM     10   O  IDS F 506     -21.303  49.226 171.9870  0.00  0.00     0.000 OA
ATOM     11   O  IDS F 506     -20.326  51.383 171.5000  0.00  0.00     0.000 O
ATOM     12   O  IDS F 506     -21.871  53.794 173.6510  0.00  0.00     0.000 O
ATOM     14  HD  IDS F 506     -22.123  54.597 173.8540  0.00  0.00     0.000 HD
ATOM     14   O  IDS F 506     -20.844  54.167 170.2390  0.00  0.00     0.000 O
ATOM     16  HD  IDS F 506     -21.095  54.971 170.4430  0.00  0.00     0.000 HD
ATOM     16   O  IDS F 506     -17.513  55.852 170.9950  0.00  0.00     0.000 OA
ATOM     17   O  IDS F 506     -19.262  56.999 171.0300  0.00  0.00     0.000 OA
ATOM     18   C  IDS F 506     -18.691  55.958 171.3100  0.00  0.00     0.000 C
ENDROOT
BRANCH 1 19
ATOM     19  O4  SGN F 505     -18.033  51.693 172.8620  0.00  0.00     0.000 O
BRANCH 19 23
ATOM     20  C1  SGN F 505     -15.794  49.115 175.2580  0.00  0.00     0.000 C
ATOM     21  C2  SGN F 505     -17.262  48.750 175.1000  0.00  0.00     0.000 C
ATOM     22  C3  SGN F 505     -17.848  49.376 173.8270  0.00  0.00     0.000 C
ATOM     23  C4  SGN F 505     -17.618  50.915 173.9650  0.00  0.00     0.000 C
ATOM     24  C5  SGN F 505     -16.144  51.112 174.0860  0.00  0.00     0.000 C
ATOM     25  O5  SGN F 505     -15.666  50.510 175.2460  0.00  0.00     0.000 O
ATOM     26   N  SGN F 505     -17.405  47.279 175.2130  0.00  0.00     0.000 N
ATOM     28  HD  SGN F 505     -17.834  46.666 174.7760  0.00  0.00     0.000 HD
ATOM     28   S  SGN F 505     -17.473  46.622 176.7530  0.00  0.00     0.000 S
ATOM     29   O  SGN F 505     -16.368  47.169 177.5070  0.00  0.00     0.000 OA
ATOM     30   O  SGN F 505     -18.756  47.039 177.2740  0.00  0.00     0.000 OA
ATOM     31   O  SGN F 505     -17.409  45.214 176.6020  0.00  0.00     0.000 OA
ATOM     32   O  SGN F 505     -19.239  49.079 173.7810  0.00  0.00     0.000 O
ATOM     34  HD  SGN F 505     -19.667  48.466 173.3450  0.00  0.00     0.000 HD
ATOM     34   C  SGN F 505     -15.765  52.553 174.1720  0.00  0.00     0.000 C
ATOM     35   O  SGN F 505     -16.496  53.059 175.2370  0.00  0.00     0.000 O
ATOM     36   S  SGN F 505     -16.357  54.436 175.8760  0.00  0.00     0.000 S
ATOM     37   O  SGN F 505     -17.680  55.004 175.8190  0.00  0.00     0.000 OA
ATOM     38   O  SGN F 505     -15.878  54.163 177.2140  0.00  0.00     0.000 OA
ATOM     39   O  SGN F 505     -15.388  55.180 175.0820  0.00  0.00     0.000 OA
BRANCH 20 40
ATOM     40  O4  IDS F 504     -15.008  48.545 174.2460  0.00  0.00     0.000 O
BRANCH 40 44
ATOM     41  C1  IDS F 504     -12.171  47.565 172.4620  0.00  0.00     0.000 C
ATOM     42  C2  IDS F 504     -13.423  46.726 172.4070  0.00  0.00     0.000 C
ATOM     43  C3  IDS F 504     -14.006  46.409 173.8370  0.00  0.00     0.000 C
ATOM     44  C4  IDS F 504     -14.022  47.640 174.7240  0.00  0.00     0.000 C
ATOM     45  C5  IDS F 504     -12.645  48.301 174.6860  0.00  0.00     0.000 C
ATOM     46  O5  IDS F 504     -12.324  48.671 173.3640  0.00  0.00     0.000 O
ATOM     47   O  IDS F 504     -16.118  46.034 170.7520  0.00  0.00     0.000 OA
ATOM     48   O  IDS F 504     -15.566  48.034 169.6140  0.00  0.00     0.000 OA
ATOM     49   O  IDS F 504     -14.037  46.173 169.6760  0.00  0.00     0.000 OA
ATOM     50   O  IDS F 504     -14.397  47.411 171.6110  0.00  0.00     0.000 O
ATOM     51   S  IDS F 504     -15.069  46.891 170.3320  0.00  0.00     0.000 S
ATOM     52   O  IDS F 504     -13.185  45.441 174.4830  0.00  0.00     0.000 O
ATOM     54  HD  IDS F 504     -13.362  45.589 173.6480  0.00  0.00     0.000 HD
ATOM     54   C  IDS F 504     -12.467  49.490 175.6370  0.00  0.00     0.000 C
ATOM     55   O  IDS F 504     -12.572  50.646 175.2350  0.00  0.00     0.000 OA
ATOM     56   O  IDS F 504     -12.222  49.320 176.8380  0.00  0.00     0.000 OA
BRANCH 41 57
ATOM     57  O4  SGN F 503     -11.095  46.742 172.8060  0.00  0.00     0.000 O
BRANCH 57 61
ATOM     58  C1  SGN F 503      -7.043  46.777 172.2330  0.00  0.00     0.000 C
ATOM     59  C2  SGN F 503      -7.567  47.590 173.4280  0.00  0.00     0.000 C
ATOM     60  C3  SGN F 503      -8.989  47.195 173.7880  0.00  0.00     0.000 C
ATOM     61  C4  SGN F 503      -9.849  47.291 172.5290  0.00  0.00     0.000 C
ATOM     62  C5  SGN F 503      -9.201  46.492 171.3820  0.00  0.00     0.000 C
ATOM     63  O5  SGN F 503      -7.901  46.936 171.1380  0.00  0.00     0.000 O
ATOM     64   N  SGN F 503      -6.677  47.461 174.5660  0.00  0.00     0.000 N
ATOM     66  HD  SGN F 503      -6.733  47.621 173.7170  0.00  0.00     0.000 HD
ATOM     66   S  SGN F 503      -5.414  48.488 174.6560  0.00  0.00     0.000 S
ATOM     67   O  SGN F 503      -4.517  48.116 173.5780  0.00  0.00     0.000 OA
ATOM     68   O  SGN F 503      -5.921  49.850 174.5020  0.00  0.00     0.000 OA
ATOM     69   O  SGN F 503      -4.856  48.213 175.9610  0.00  0.00     0.000 OA
ATOM     70   O  SGN F 503      -9.511  48.103 174.7470  0.00  0.00     0.000 O
ATOM     72  HD  SGN F 503      -9.567  48.264 173.8970  0.00  0.00     0.000 HD
ATOM     72   C  SGN F 503      -9.905  46.625 170.0560  0.00  0.00     0.000 C
ATOM     73   O  SGN F 503      -9.895  47.991 169.7110  0.00  0.00     0.000 O
ATOM     74   S  SGN F 503      -9.874  48.553 168.2600  0.00  0.00     0.000 S
ATOM     75   O  SGN F 503     -10.612  47.666 167.4220  0.00  0.00     0.000 OA
ATOM     76   O  SGN F 503     -10.475  49.885 168.3060  0.00  0.00     0.000 OA
ATOM     77   O  SGN F 503      -8.507  48.531 167.9130  0.00  0.00     0.000 OA
BRANCH 58 78
ATOM     78  O4  IDS F 502      -6.893  45.421 172.5790  0.00  0.00     0.000 O
BRANCH 78 82
ATOM     79  C1  IDS F 502      -6.007  42.061 172.8520  0.00  0.00     0.000 C
ATOM     80  C2  IDS F 502      -5.729  43.042 173.9830  0.00  0.00     0.000 C
ATOM     81  C3  IDS F 502      -4.984  44.284 173.4910  0.00  0.00     0.000 C
ATOM     82  C4  IDS F 502      -5.657  44.867 172.2300  0.00  0.00     0.000 C
ATOM     83  C5  IDS F 502      -5.870  43.758 171.1980  0.00  0.00     0.000 C
ATOM     84  O5  IDS F 502      -6.617  42.697 171.7580  0.00  0.00     0.000 O
ATOM     85   O  IDS F 502      -4.795  41.438 172.5070  0.00  0.00     0.000 OA
ATOM     86   O  IDS F 502      -6.958  43.467 174.5020  0.00  0.00     0.000 O
ATOM     87   S  IDS F 502      -7.233  44.153 175.8800  0.00  0.00     0.000 S
ATOM     88   O  IDS F 502      -6.062  44.918 176.2180  0.00  0.00     0.000 OA
ATOM     89   O  IDS F 502      -8.395  44.991 175.6870  0.00  0.00     0.000 OA
ATOM     90   O  IDS F 502      -7.446  43.066 176.7990  0.00  0.00     0.000 OA
ATOM     91   O  IDS F 502      -3.660  43.905 173.1700  0.00  0.00     0.000 O
ATOM     93  HD  IDS F 502      -3.704  43.868 172.3060  0.00  0.00     0.000 HD
ATOM     93   O  IDS F 502      -7.587  43.856 169.5580  0.00  0.00     0.000 OA
ATOM     94   O  IDS F 502      -5.911  45.013 169.1720  0.00  0.00     0.000 OA
ATOM     95   C  IDS F 502      -6.495  44.233 169.9000  0.00  0.00     0.000 C
ENDBRANCH 78 82
ENDBRANCH 58 78
ENDBRANCH 57 61
ENDBRANCH 41 57
ENDBRANCH 40 44
ENDBRANCH 20 40
ENDBRANCH 19 23
ENDBRANCH 1 19
TORSDOF 8
ENDMDL
MODEL 8
REMARK VINA RESULT:       4.2      1.517      2.192
ROOT
ATOM      1  C1  IDS F 506     -20.428  55.787 169.5160  0.00  0.00     0.000 C
ATOM      2  C2  IDS F 506     -21.337  55.283 168.3820  0.00  0.00     0.000 C
ATOM      3  C3  IDS F 506     -21.877  56.421 167.4830  0.00  0.00     0.000 C
ATOM      4  C4  IDS F 506     -20.853  57.550 167.2170  0.00  0.00     0.000 C
ATOM      5  C5  IDS F 506     -20.032  57.833 168.4800  0.00  0.00     0.000 C
ATOM      6  O5  IDS F 506     -19.475  56.656 168.9650  0.00  0.00     0.000 O
ATOM      7   S  IDS F 506     -21.203  53.332 166.5180  0.00  0.00     0.000 S
ATOM      8   O  IDS F 506     -22.134  54.066 165.7160  0.00  0.00     0.000 OA
ATOM      9   O  IDS F 506     -20.113  52.840 165.7260  0.00  0.00     0.000 OA
ATOM     10   O  IDS F 506     -21.827  52.310 167.3270  0.00  0.00     0.000 OA
ATOM     11   O  IDS F 506     -20.623  54.395 167.5460  0.00  0.00     0.000 O
ATOM     12   O  IDS F 506     -23.026  56.992 168.1040  0.00  0.00     0.000 O
ATOM     14  HD  IDS F 506     -23.293  57.815 168.0740  0.00  0.00     0.000 HD
ATOM     14   O  IDS F 506     -20.002  57.111 166.1870  0.00  0.00     0.000 O
ATOM     16  HD  IDS F 506     -20.269  57.935 166.1570  0.00  0.00     0.000 HD
ATOM     16   O  IDS F 506     -17.862  58.718 168.8960  0.00  0.00     0.000 OA
ATOM     17   O  IDS F 506     -19.128  59.928 167.7510  0.00  0.00     0.000 OA
ATOM     18   C  IDS F 506     -18.950  58.886 168.3620  0.00  0.00     0.000 C
ENDROOT
BRANCH 1 19
ATOM     19  O4  SGN F 505     -19.756  54.707 170.0680  0.00  0.00     0.000 O
BRANCH 19 23
ATOM     20  C1  SGN F 505     -19.140  52.685 173.6640  0.00  0.00     0.000 C
ATOM     21  C2  SGN F 505     -20.568  52.667 173.1410  0.00  0.00     0.000 C
ATOM     22  C3  SGN F 505     -20.600  52.921 171.6270  0.00  0.00     0.000 C
ATOM     23  C4  SGN F 505     -19.894  54.298 171.4120  0.00  0.00     0.000 C
ATOM     24  C5  SGN F 505     -18.509  54.151 171.9490  0.00  0.00     0.000 C
ATOM     25  O5  SGN F 505     -18.543  53.904 173.3190  0.00  0.00     0.000 O
ATOM     26   N  SGN F 505     -21.228  51.419 173.5930  0.00  0.00     0.000 N
ATOM     28  HD  SGN F 505     -21.730  50.818 173.2230  0.00  0.00     0.000 HD
ATOM     28   S  SGN F 505     -21.864  51.395 175.1430  0.00  0.00     0.000 S
ATOM     29   O  SGN F 505     -20.839  51.882 176.0400  0.00  0.00     0.000 OA
ATOM     30   O  SGN F 505     -23.008  52.276 175.0840  0.00  0.00     0.000 OA
ATOM     31   O  SGN F 505     -22.253  50.058 175.4060  0.00  0.00     0.000 OA
ATOM     32   O  SGN F 505     -21.959  52.984 171.2120  0.00  0.00     0.000 O
ATOM     34  HD  SGN F 505     -22.461  52.383 170.8420  0.00  0.00     0.000 HD
ATOM     34   C  SGN F 505     -17.690  55.384 171.7620  0.00  0.00     0.000 C
ATOM     35   O  SGN F 505     -18.425  56.402 172.3520  0.00  0.00     0.000 O
ATOM     36   S  SGN F 505     -17.971  57.836 172.6060  0.00  0.00     0.000 S
ATOM     37   O  SGN F 505     -18.969  58.656 171.9690  0.00  0.00     0.000 OA
ATOM     38   O  SGN F 505     -17.930  57.949 174.0470  0.00  0.00     0.000 OA
ATOM     39   O  SGN F 505     -16.652  57.980 172.0010  0.00  0.00     0.000 OA
BRANCH 20 40
ATOM     40  O4  IDS F 504     -18.390  51.614 173.1570  0.00  0.00     0.000 O
BRANCH 40 44
ATOM     41  C1  IDS F 504     -16.710  48.586 172.7110  0.00  0.00     0.000 C
ATOM     42  C2  IDS F 504     -18.036  48.614 173.4290  0.00  0.00     0.000 C
ATOM     43  C3  IDS F 504     -18.089  49.703 174.5670  0.00  0.00     0.000 C
ATOM     44  C4  IDS F 504     -17.510  51.027 174.1070  0.00  0.00     0.000 C
ATOM     45  C5  IDS F 504     -16.144  50.781 173.4690  0.00  0.00     0.000 C
ATOM     46  O5  IDS F 504     -16.275  49.910 172.3680  0.00  0.00     0.000 O
ATOM     47   O  IDS F 504     -21.236  48.202 173.1670  0.00  0.00     0.000 OA
ATOM     48   O  IDS F 504     -20.748  48.274 170.8530  0.00  0.00     0.000 OA
ATOM     49   O  IDS F 504     -19.737  46.626 172.2890  0.00  0.00     0.000 OA
ATOM     50   O  IDS F 504     -19.071  48.846 172.4660  0.00  0.00     0.000 O
ATOM     51   S  IDS F 504     -20.269  47.933 172.1660  0.00  0.00     0.000 S
ATOM     52   O  IDS F 504     -17.308  49.270 175.6770  0.00  0.00     0.000 O
ATOM     54  HD  IDS F 504     -17.752  48.836 175.0730  0.00  0.00     0.000 HD
ATOM     54   C  IDS F 504     -15.374  52.044 173.0680  0.00  0.00     0.000 C
ATOM     55   O  IDS F 504     -15.378  52.450 171.9080  0.00  0.00     0.000 OA
ATOM     56   O  IDS F 504     -14.736  52.699 173.9030  0.00  0.00     0.000 OA
BRANCH 41 57
ATOM     57  O4  SGN F 503     -15.782  47.911 173.5090  0.00  0.00     0.000 O
BRANCH 57 61
ATOM     58  C1  SGN F 503     -14.480  44.053 173.9210  0.00  0.00     0.000 C
ATOM     59  C2  SGN F 503     -14.623  44.572 172.4810  0.00  0.00     0.000 C
ATOM     60  C3  SGN F 503     -14.714  46.087 172.4430  0.00  0.00     0.000 C
ATOM     61  C4  SGN F 503     -15.829  46.528 173.3900  0.00  0.00     0.000 C
ATOM     62  C5  SGN F 503     -15.618  45.904 174.7830  0.00  0.00     0.000 C
ATOM     63  O5  SGN F 503     -15.549  44.513 174.7000  0.00  0.00     0.000 O
ATOM     64   N  SGN F 503     -13.539  44.084 171.6500  0.00  0.00     0.000 N
ATOM     66  HD  SGN F 503     -14.148  43.872 172.2280  0.00  0.00     0.000 HD
ATOM     66   S  SGN F 503     -13.725  42.624 170.9490  0.00  0.00     0.000 S
ATOM     67   O  SGN F 503     -13.686  41.653 172.0260  0.00  0.00     0.000 OA
ATOM     68   O  SGN F 503     -15.007  42.613 170.2480  0.00  0.00     0.000 OA
ATOM     69   O  SGN F 503     -12.577  42.528 170.0760  0.00  0.00     0.000 OA
ATOM     70   O  SGN F 503     -15.057  46.514 171.1320  0.00  0.00     0.000 O
ATOM     72  HD  SGN F 503     -15.666  46.301 171.7100  0.00  0.00     0.000 HD
ATOM     72   C  SGN F 503     -16.734  46.173 175.7600  0.00  0.00     0.000 C
ATOM     73   O  SGN F 503     -17.915  45.641 175.2060  0.00  0.00     0.000 O
ATOM     74   S  SGN F 503     -19.118  45.080 176.0170  0.00  0.00     0.000 S
ATOM     75   O  SGN F 503     -19.235  45.828 177.2250  0.00  0.00     0.000 OA
ATOM     76   O  SGN F 503     -20.305  45.214 175.1750  0.00  0.00     0.000 OA
ATOM     77   O  SGN F 503     -18.738  43.751 176.2990  0.00  0.00     0.000 OA
BRANCH 58 78
ATOM     78  O4  IDS F 502     -13.241  44.436 174.4690  0.00  0.00     0.000 O
BRANCH 78 82
ATOM     79  C1  IDS F 502     -10.182  44.743 176.1110  0.00  0.00     0.000 C
ATOM     80  C2  IDS F 502     -10.250  44.341 174.6440  0.00  0.00     0.000 C
ATOM     81  C3  IDS F 502     -11.203  43.165 174.4180  0.00  0.00     0.000 C
ATOM     82  C4  IDS F 502     -12.554  43.410 175.1240  0.00  0.00     0.000 C
ATOM     83  C5  IDS F 502     -12.312  43.809 176.5810  0.00  0.00     0.000 C
ATOM     84  O5  IDS F 502     -11.464  44.936 176.6510  0.00  0.00     0.000 O
ATOM     85   O  IDS F 502      -9.448  43.762 176.8000  0.00  0.00     0.000 OA
ATOM     86   O  IDS F 502     -10.745  45.430 173.9160  0.00  0.00     0.000 O
ATOM     87   S  IDS F 502     -10.652  45.677 172.3750  0.00  0.00     0.000 S
ATOM     88   O  IDS F 502     -10.651  44.388 171.7340  0.00  0.00     0.000 OA
ATOM     89   O  IDS F 502     -11.816  46.459 172.0230  0.00  0.00     0.000 OA
ATOM     90   O  IDS F 502      -9.406  46.371 172.1860  0.00  0.00     0.000 OA
ATOM     91   O  IDS F 502     -10.606  42.004 174.9600  0.00  0.00     0.000 O
ATOM     93  HD  IDS F 502     -11.046  41.923 175.7020  0.00  0.00     0.000 HD
ATOM     93   O  IDS F 502     -13.858  45.124 177.8160  0.00  0.00     0.000 OA
ATOM     94   O  IDS F 502     -14.359  43.124 177.5940  0.00  0.00     0.000 OA
ATOM     95   C  IDS F 502     -13.582  44.036 177.3800  0.00  0.00     0.000 C
ENDBRANCH 78 82
ENDBRANCH 58 78
ENDBRANCH 57 61
ENDBRANCH 41 57
ENDBRANCH 40 44
ENDBRANCH 20 40
ENDBRANCH 19 23
ENDBRANCH 1 19
TORSDOF 8
ENDMDL
MODEL 9
REMARK VINA RESULT:       5.7      3.440      5.866
ROOT
ATOM      1  C1  IDS F 506     -18.627  53.238 172.7520  0.00  0.00     0.000 C
ATOM      2  C2  IDS F 506     -20.137  53.024 172.5560  0.00  0.00     0.000 C
ATOM      3  C3  IDS F 506     -20.950  54.340 172.6140  0.00  0.00     0.000 C
ATOM      4  C4  IDS F 506     -20.243  55.545 171.9530  0.00  0.00     0.000 C
ATOM      5  C5  IDS F 506     -18.739  55.507 172.2470  0.00  0.00     0.000 C
ATOM      6  O5  IDS F 506     -18.212  54.270 171.8970  0.00  0.00     0.000 O
ATOM      7   S  IDS F 506     -21.689  51.673 170.8050  0.00  0.00     0.000 S
ATOM      8   O  IDS F 506     -22.772  52.555 171.1200  0.00  0.00     0.000 OA
ATOM      9   O  IDS F 506     -21.579  51.471 169.3900  0.00  0.00     0.000 OA
ATOM     10   O  IDS F 506     -21.720  50.439 171.5560  0.00  0.00     0.000 OA
ATOM     11   O  IDS F 506     -20.385  52.437 171.2950  0.00  0.00     0.000 O
ATOM     12   O  IDS F 506     -21.207  54.661 173.9790  0.00  0.00     0.000 O
ATOM     14  HD  IDS F 506     -21.274  55.447 174.3370  0.00  0.00     0.000 HD
ATOM     14   O  IDS F 506     -20.457  55.450 170.5660  0.00  0.00     0.000 O
ATOM     16  HD  IDS F 506     -20.523  56.235 170.9240  0.00  0.00     0.000 HD
ATOM     16   O  IDS F 506     -16.801  56.345 171.1460  0.00  0.00     0.000 OA
ATOM     17   O  IDS F 506     -18.276  57.763 171.5860  0.00  0.00     0.000 OA
ATOM     18   C  IDS F 506     -17.899  56.603 171.6220  0.00  0.00     0.000 C
ENDROOT
BRANCH 1 19
ATOM     19  O4  SGN F 505     -17.956  52.080 172.3840  0.00  0.00     0.000 O
BRANCH 19 23
ATOM     20  C1  SGN F 505     -16.696  48.590 174.2870  0.00  0.00     0.000 C
ATOM     21  C2  SGN F 505     -17.869  48.427 173.3330  0.00  0.00     0.000 C
ATOM     22  C3  SGN F 505     -17.902  49.566 172.3050  0.00  0.00     0.000 C
ATOM     23  C4  SGN F 505     -17.977  50.887 173.1370  0.00  0.00     0.000 C
ATOM     24  C5  SGN F 505     -16.758  50.913 173.9980  0.00  0.00     0.000 C
ATOM     25  O5  SGN F 505     -16.773  49.850 174.8950  0.00  0.00     0.000 O
ATOM     26   N  SGN F 505     -17.840  47.057 172.7670  0.00  0.00     0.000 N
ATOM     28  HD  SGN F 505     -17.936  46.714 171.9780  0.00  0.00     0.000 HD
ATOM     28   S  SGN F 505     -18.499  45.822 173.6890  0.00  0.00     0.000 S
ATOM     29   O  SGN F 505     -17.940  45.926 175.0180  0.00  0.00     0.000 OA
ATOM     30   O  SGN F 505     -19.923  46.070 173.6690  0.00  0.00     0.000 OA
ATOM     31   O  SGN F 505     -18.177  44.606 173.0360  0.00  0.00     0.000 OA
ATOM     32   O  SGN F 505     -19.067  49.412 171.5030  0.00  0.00     0.000 O
ATOM     34  HD  SGN F 505     -19.162  49.069 170.7130  0.00  0.00     0.000 HD
ATOM     34   C  SGN F 505     -16.665  52.156 174.8180  0.00  0.00     0.000 C
ATOM     35   O  SGN F 505     -17.860  52.219 175.5200  0.00  0.00     0.000 O
ATOM     36   S  SGN F 505     -18.218  53.190 176.6410  0.00  0.00     0.000 S
ATOM     37   O  SGN F 505     -19.439  53.820 176.2060  0.00  0.00     0.000 OA
ATOM     38   O  SGN F 505     -18.358  52.350 177.8110  0.00  0.00     0.000 OA
ATOM     39   O  SGN F 505     -17.110  54.129 176.7620  0.00  0.00     0.000 OA
BRANCH 20 40
ATOM     40  O4  IDS F 504     -15.468  48.442 173.6260  0.00  0.00     0.000 O
BRANCH 40 44
ATOM     41  C1  IDS F 504     -12.383  47.348 172.4100  0.00  0.00     0.000 C
ATOM     42  C2  IDS F 504     -13.544  46.389 172.4930  0.00  0.00     0.000 C
ATOM     43  C3  IDS F 504     -14.245  46.402 173.9050  0.00  0.00     0.000 C
ATOM     44  C4  IDS F 504     -14.463  47.816 174.4120  0.00  0.00     0.000 C
ATOM     45  C5  IDS F 504     -13.152  48.594 174.3000  0.00  0.00     0.000 C
ATOM     46  O5  IDS F 504     -12.726  48.630 172.9560  0.00  0.00     0.000 O
ATOM     47   O  IDS F 504     -15.977  44.979 170.8890  0.00  0.00     0.000 OA
ATOM     48   O  IDS F 504     -15.484  46.650 169.2880  0.00  0.00     0.000 OA
ATOM     49   O  IDS F 504     -13.815  45.059 169.9830  0.00  0.00     0.000 OA
ATOM     50   O  IDS F 504     -14.484  46.721 171.4650  0.00  0.00     0.000 O
ATOM     51   S  IDS F 504     -14.968  45.805 170.3310  0.00  0.00     0.000 S
ATOM     52   O  IDS F 504     -13.416  45.742 174.8560  0.00  0.00     0.000 O
ATOM     54  HD  IDS F 504     -13.516  45.641 174.0010  0.00  0.00     0.000 HD
ATOM     54   C  IDS F 504     -13.180  50.006 174.8950  0.00  0.00     0.000 C
ATOM     55   O  IDS F 504     -13.343  50.993 174.1810  0.00  0.00     0.000 OA
ATOM     56   O  IDS F 504     -13.050  50.193 176.1120  0.00  0.00     0.000 OA
BRANCH 41 57
ATOM     57  O4  SGN F 503     -11.282  46.774 173.0520  0.00  0.00     0.000 O
BRANCH 57 61
ATOM     58  C1  SGN F 503      -7.472  45.754 171.9590  0.00  0.00     0.000 C
ATOM     59  C2  SGN F 503      -8.031  47.048 171.3460  0.00  0.00     0.000 C
ATOM     60  C3  SGN F 503      -9.252  47.539 172.1040  0.00  0.00     0.000 C
ATOM     61  C4  SGN F 503     -10.258  46.394 172.1930  0.00  0.00     0.000 C
ATOM     62  C5  SGN F 503      -9.577  45.134 172.7630  0.00  0.00     0.000 C
ATOM     63  O5  SGN F 503      -8.472  44.774 171.9920  0.00  0.00     0.000 O
ATOM     64   N  SGN F 503      -7.003  48.069 171.2760  0.00  0.00     0.000 N
ATOM     66  HD  SGN F 503      -7.203  47.243 171.1100  0.00  0.00     0.000 HD
ATOM     66   S  SGN F 503      -6.038  48.080 169.9620  0.00  0.00     0.000 S
ATOM     67   O  SGN F 503      -5.218  46.887 170.0580  0.00  0.00     0.000 OA
ATOM     68   O  SGN F 503      -6.886  48.067 168.7720  0.00  0.00     0.000 OA
ATOM     69   O  SGN F 503      -5.271  49.294 170.1250  0.00  0.00     0.000 OA
ATOM     70   O  SGN F 503      -9.862  48.605 171.3900  0.00  0.00     0.000 O
ATOM     72  HD  SGN F 503     -10.062  47.779 171.2240  0.00  0.00     0.000 HD
ATOM     72   C  SGN F 503     -10.451  43.907 172.7750  0.00  0.00     0.000 C
ATOM     73   O  SGN F 503     -10.828  43.647 171.4420  0.00  0.00     0.000 O
ATOM     74   S  SGN F 503     -11.130  42.240 170.8490  0.00  0.00     0.000 S
ATOM     75   O  SGN F 503     -11.719  41.438 171.8690  0.00  0.00     0.000 OA
ATOM     76   O  SGN F 503     -12.036  42.436 169.7180  0.00  0.00     0.000 OA
ATOM     77   O  SGN F 503      -9.855  41.742 170.5080  0.00  0.00     0.000 OA
BRANCH 58 78
ATOM     78  O4  IDS F 502      -6.944  45.996 173.2410  0.00  0.00     0.000 O
BRANCH 78 82
ATOM     79  C1  IDS F 502      -5.247  45.964 176.2850  0.00  0.00     0.000 C
ATOM     80  C2  IDS F 502      -4.974  47.041 175.2440  0.00  0.00     0.000 C
ATOM     81  C3  IDS F 502      -4.669  46.442 173.8690  0.00  0.00     0.000 C
ATOM     82  C4  IDS F 502      -5.717  45.374 173.4900  0.00  0.00     0.000 C
ATOM     83  C5  IDS F 502      -5.877  44.376 174.6380  0.00  0.00     0.000 C
ATOM     84  O5  IDS F 502      -6.211  45.047 175.8350  0.00  0.00     0.000 O
ATOM     85   O  IDS F 502      -4.025  45.348 176.6070  0.00  0.00     0.000 OA
ATOM     86   O  IDS F 502      -6.127  47.824 175.1150  0.00  0.00     0.000 O
ATOM     87   S  IDS F 502      -6.255  49.251 174.4880  0.00  0.00     0.000 S
ATOM     88   O  IDS F 502      -5.255  49.356 173.4580  0.00  0.00     0.000 OA
ATOM     89   O  IDS F 502      -7.596  49.338 173.9570  0.00  0.00     0.000 OA
ATOM     90   O  IDS F 502      -6.000  50.157 175.5770  0.00  0.00     0.000 OA
ATOM     91   O  IDS F 502      -3.394  45.834 173.9270  0.00  0.00     0.000 O
ATOM     93  HD  IDS F 502      -3.613  44.998 173.9900  0.00  0.00     0.000 HD
ATOM     93   O  IDS F 502      -7.878  43.144 174.9860  0.00  0.00     0.000 OA
ATOM     94   O  IDS F 502      -6.649  42.447 173.4690  0.00  0.00     0.000 OA
ATOM     95   C  IDS F 502      -6.860  43.256 174.3520  0.00  0.00     0.000 C
ENDBRANCH 78 82
ENDBRANCH 58 78
ENDBRANCH 57 61
ENDBRANCH 41 57
ENDBRANCH 40 44
ENDBRANCH 20 40
ENDBRANCH 19 23
ENDBRANCH 1 19
TORSDOF 8
ENDMDL
MODEL 10
REMARK VINA RESULT:       6.0      2.959      5.333
ROOT
ATOM      1  C1  IDS F 506     -20.341  52.500 172.2740  0.00  0.00     0.000 C
ATOM      2  C2  IDS F 506     -21.658  52.001 171.6560  0.00  0.00     0.000 C
ATOM      3  C3  IDS F 506     -22.589  53.150 171.1970  0.00  0.00     0.000 C
ATOM      4  C4  IDS F 506     -21.842  54.351 170.5730  0.00  0.00     0.000 C
ATOM      5  C5  IDS F 506     -20.536  54.617 171.3290  0.00  0.00     0.000 C
ATOM      6  O5  IDS F 506     -19.782  53.453 171.4120  0.00  0.00     0.000 O
ATOM      7   S  IDS F 506     -22.351  50.162 169.8020  0.00  0.00     0.000 S
ATOM      8   O  IDS F 506     -23.571  50.879 169.5800  0.00  0.00     0.000 OA
ATOM      9   O  IDS F 506     -21.742  49.780 168.5610  0.00  0.00     0.000 OA
ATOM     10   O  IDS F 506     -22.495  49.064 170.7280  0.00  0.00     0.000 OA
ATOM     11   O  IDS F 506     -21.391  51.204 170.5210  0.00  0.00     0.000 O
ATOM     12   O  IDS F 506     -23.332  53.615 172.3210  0.00  0.00     0.000 O
ATOM     14  HD  IDS F 506     -23.607  54.421 172.4800  0.00  0.00     0.000 HD
ATOM     14   O  IDS F 506     -21.557  54.021 169.2360  0.00  0.00     0.000 O
ATOM     16  HD  IDS F 506     -21.832  54.826 169.3950  0.00  0.00     0.000 HD
ATOM     16   O  IDS F 506     -18.449  55.611 170.7570  0.00  0.00     0.000 OA
ATOM     17   O  IDS F 506     -20.138  56.800 170.4240  0.00  0.00     0.000 OA
ATOM     18   C  IDS F 506     -19.665  55.740 170.8020  0.00  0.00     0.000 C
ENDROOT
BRANCH 1 19
ATOM     19  O4  SGN F 505     -19.457  51.435 172.3700  0.00  0.00     0.000 O
BRANCH 19 23
ATOM     20  C1  SGN F 505     -17.638  49.022 175.2430  0.00  0.00     0.000 C
ATOM     21  C2  SGN F 505     -19.009  48.560 174.7760  0.00  0.00     0.000 C
ATOM     22  C3  SGN F 505     -19.342  49.140 173.3940  0.00  0.00     0.000 C
ATOM     23  C4  SGN F 505     -19.245  50.692 173.5510  0.00  0.00     0.000 C
ATOM     24  C5  SGN F 505     -17.849  50.987 173.9860  0.00  0.00     0.000 C
ATOM     25  O5  SGN F 505     -17.599  50.422 175.2330  0.00  0.00     0.000 O
ATOM     26   N  SGN F 505     -19.080  47.083 174.8830  0.00  0.00     0.000 N
ATOM     28  HD  SGN F 505     -19.363  46.441 174.3750  0.00  0.00     0.000 HD
ATOM     28   S  SGN F 505     -19.441  46.430 176.3830  0.00  0.00     0.000 S
ATOM     29   O  SGN F 505     -18.565  47.052 177.3500  0.00  0.00     0.000 OA
ATOM     30   O  SGN F 505     -20.831  46.763 176.6040  0.00  0.00     0.000 OA
ATOM     31   O  SGN F 505     -19.257  45.029 176.2750  0.00  0.00     0.000 OA
ATOM     32   O  SGN F 505     -20.667  48.752 173.0520  0.00  0.00     0.000 O
ATOM     34  HD  SGN F 505     -20.950  48.110 172.5440  0.00  0.00     0.000 HD
ATOM     34   C  SGN F 505     -17.591  52.450 174.1250  0.00  0.00     0.000 C
ATOM     35   O  SGN F 505     -18.568  52.910 174.9950  0.00  0.00     0.000 O
ATOM     36   S  SGN F 505     -18.660  54.297 175.6240  0.00  0.00     0.000 S
ATOM     37   O  SGN F 505     -19.971  54.776 175.2690  0.00  0.00     0.000 OA
ATOM     38   O  SGN F 505     -18.468  54.062 177.0390  0.00  0.00     0.000 OA
ATOM     39   O  SGN F 505     -17.589  55.100 175.0460  0.00  0.00     0.000 OA
BRANCH 20 40
ATOM     40  O4  IDS F 504     -16.615  48.500 174.4380  0.00  0.00     0.000 O
BRANCH 40 44
ATOM     41  C1  IDS F 504     -13.989  46.614 173.1200  0.00  0.00     0.000 C
ATOM     42  C2  IDS F 504     -15.113  45.930 173.8570  0.00  0.00     0.000 C
ATOM     43  C3  IDS F 504     -15.418  46.594 175.2540  0.00  0.00     0.000 C
ATOM     44  C4  IDS F 504     -15.456  48.108 175.1610  0.00  0.00     0.000 C
ATOM     45  C5  IDS F 504     -14.201  48.596 174.4400  0.00  0.00     0.000 C
ATOM     46  O5  IDS F 504     -14.142  48.041 173.1450  0.00  0.00     0.000 O
ATOM     47   O  IDS F 504     -17.919  44.338 173.5870  0.00  0.00     0.000 OA
ATOM     48   O  IDS F 504     -17.819  45.158 171.3700  0.00  0.00     0.000 OA
ATOM     49   O  IDS F 504     -16.069  43.765 172.2640  0.00  0.00     0.000 OA
ATOM     50   O  IDS F 504     -16.280  45.950 173.0280  0.00  0.00     0.000 O
ATOM     51   S  IDS F 504     -17.070  44.734 172.5230  0.00  0.00     0.000 S
ATOM     52   O  IDS F 504     -14.386  46.259 176.1770  0.00  0.00     0.000 O
ATOM     54  HD  IDS F 504     -14.710  45.843 175.4900  0.00  0.00     0.000 HD
ATOM     54   C  IDS F 504     -14.033  50.118 174.3810  0.00  0.00     0.000 C
ATOM     55   O  IDS F 504     -14.351  50.755 173.3800  0.00  0.00     0.000 OA
ATOM     56   O  IDS F 504     -13.583  50.752 175.3450  0.00  0.00     0.000 OA
BRANCH 41 57
ATOM     57  O4  SGN F 503     -12.773  46.200 173.6730  0.00  0.00     0.000 O
BRANCH 57 61
ATOM     58  C1  SGN F 503      -8.949  46.592 172.2700  0.00  0.00     0.000 C
ATOM     59  C2  SGN F 503      -9.274  47.339 173.5730  0.00  0.00     0.000 C
ATOM     60  C3  SGN F 503     -10.551  46.818 174.2080  0.00  0.00     0.000 C
ATOM     61  C4  SGN F 503     -11.662  46.858 173.1600  0.00  0.00     0.000 C
ATOM     62  C5  SGN F 503     -11.207  46.133 171.8780  0.00  0.00     0.000 C
ATOM     63  O5  SGN F 503     -10.029  46.692 171.3830  0.00  0.00     0.000 O
ATOM     64   N  SGN F 503      -8.157  47.271 174.4960  0.00  0.00     0.000 N
ATOM     66  HD  SGN F 503      -8.404  47.438 173.6820  0.00  0.00     0.000 HD
ATOM     66   S  SGN F 503      -6.991  48.402 174.3530  0.00  0.00     0.000 S
ATOM     67   O  SGN F 503      -6.314  48.124 173.1000  0.00  0.00     0.000 OA
ATOM     68   O  SGN F 503      -7.628  49.717 174.3510  0.00  0.00     0.000 OA
ATOM     69   O  SGN F 503      -6.151  48.157 175.5030  0.00  0.00     0.000 OA
ATOM     70   O  SGN F 503     -10.932  47.664 175.2830  0.00  0.00     0.000 O
ATOM     72  HD  SGN F 503     -11.178  47.831 174.4700  0.00  0.00     0.000 HD
ATOM     72   C  SGN F 503     -12.183  46.224 170.7330  0.00  0.00     0.000 C
ATOM     73   O  SGN F 503     -12.357  47.591 170.4370  0.00  0.00     0.000 O
ATOM     74   S  SGN F 503     -12.688  48.174 169.0330  0.00  0.00     0.000 S
ATOM     75   O  SGN F 503     -13.511  47.239 168.3400  0.00  0.00     0.000 OA
ATOM     76   O  SGN F 503     -13.372  49.448 169.2460  0.00  0.00     0.000 OA
ATOM     77   O  SGN F 503     -11.427  48.274 168.4080  0.00  0.00     0.000 OA
BRANCH 58 78
ATOM     78  O4  IDS F 502      -8.620  45.249 172.5320  0.00  0.00     0.000 O
BRANCH 78 82
ATOM     79  C1  IDS F 502      -7.435  41.971 172.5310  0.00  0.00     0.000 C
ATOM     80  C2  IDS F 502      -6.935  42.987 173.5490  0.00  0.00     0.000 C
ATOM     81  C3  IDS F 502      -6.451  44.276 172.8800  0.00  0.00     0.000 C
ATOM     82  C4  IDS F 502      -7.488  44.786 171.8550  0.00  0.00     0.000 C
ATOM     83  C5  IDS F 502      -7.887  43.648 170.9140  0.00  0.00     0.000 C
ATOM     84  O5  IDS F 502      -8.368  42.542 171.6500  0.00  0.00     0.000 O
ATOM     85   O  IDS F 502      -6.318  41.438 171.8630  0.00  0.00     0.000 OA
ATOM     86   O  IDS F 502      -8.004  43.325 174.3880  0.00  0.00     0.000 O
ATOM     87   S  IDS F 502      -7.945  44.008 175.7930  0.00  0.00     0.000 S
ATOM     88   O  IDS F 502      -6.790  44.866 175.8020  0.00  0.00     0.000 OA
ATOM     89   O  IDS F 502      -9.177  44.751 175.9300  0.00  0.00     0.000 OA
ATOM     90   O  IDS F 502      -7.814  42.922 176.7270  0.00  0.00     0.000 OA
ATOM     91   O  IDS F 502      -5.241  43.994 172.2060  0.00  0.00     0.000 O
ATOM     93  HD  IDS F 502      -5.516  43.941 171.3870  0.00  0.00     0.000 HD
ATOM     93   O  IDS F 502      -9.989  43.590 169.8070  0.00  0.00     0.000 OA
ATOM     94   O  IDS F 502      -8.578  44.866 168.9840  0.00  0.00     0.000 OA
ATOM     95   C  IDS F 502      -8.878  44.054 169.8390  0.00  0.00     0.000 C
ENDBRANCH 78 82
ENDBRANCH 58 78
ENDBRANCH 57 61
ENDBRANCH 41 57
ENDBRANCH 40 44
ENDBRANCH 20 40
ENDBRANCH 19 23
ENDBRANCH 1 19
TORSDOF 8
ENDMDL
MODEL 11
REMARK VINA RESULT:       6.1      4.314      6.721
ROOT
ATOM      1  C1  IDS F 506     -20.296  52.764 172.5540  0.00  0.00     0.000 C
ATOM      2  C2  IDS F 506     -21.553  51.971 172.1600  0.00  0.00     0.000 C
ATOM      3  C3  IDS F 506     -22.736  52.875 171.7380  0.00  0.00     0.000 C
ATOM      4  C4  IDS F 506     -22.315  54.121 170.9250  0.00  0.00     0.000 C
ATOM      5  C5  IDS F 506     -21.007  54.700 171.4750  0.00  0.00     0.000 C
ATOM      6  O5  IDS F 506     -20.036  53.709 171.5500  0.00  0.00     0.000 O
ATOM      7   S  IDS F 506     -22.084  49.853 170.5690  0.00  0.00     0.000 S
ATOM      8   O  IDS F 506     -23.437  50.307 170.4560  0.00  0.00     0.000 OA
ATOM      9   O  IDS F 506     -21.560  49.461 169.2930  0.00  0.00     0.000 OA
ATOM     10   O  IDS F 506     -21.903  48.849 171.5920  0.00  0.00     0.000 OA
ATOM     11   O  IDS F 506     -21.268  51.122 171.0670  0.00  0.00     0.000 O
ATOM     12   O  IDS F 506     -23.420  53.312 172.9100  0.00  0.00     0.000 O
ATOM     14  HD  IDS F 506     -23.827  54.066 173.0390  0.00  0.00     0.000 HD
ATOM     14   O  IDS F 506     -22.128  53.711 169.5930  0.00  0.00     0.000 O
ATOM     16  HD  IDS F 506     -22.534  54.464 169.7220  0.00  0.00     0.000 HD
ATOM     16   O  IDS F 506     -19.235  55.994 170.5520  0.00  0.00     0.000 OA
ATOM     17   O  IDS F 506     -21.150  56.811 170.3520  0.00  0.00     0.000 OA
ATOM     18   C  IDS F 506     -20.439  55.902 170.7480  0.00  0.00     0.000 C
ENDROOT
BRANCH 1 19
ATOM     19  O4  SGN F 505     -19.216  51.895 172.6160  0.00  0.00     0.000 O
BRANCH 19 23
ATOM     20  C1  SGN F 505     -16.796  50.081 175.4870  0.00  0.00     0.000 C
ATOM     21  C2  SGN F 505     -17.971  49.247 175.0020  0.00  0.00     0.000 C
ATOM     22  C3  SGN F 505     -18.447  49.721 173.6220  0.00  0.00     0.000 C
ATOM     23  C4  SGN F 505     -18.807  51.232 173.7930  0.00  0.00     0.000 C
ATOM     24  C5  SGN F 505     -17.558  51.914 174.2450  0.00  0.00     0.000 C
ATOM     25  O5  SGN F 505     -17.165  51.432 175.4900  0.00  0.00     0.000 O
ATOM     26   N  SGN F 505     -17.612  47.811 175.0950  0.00  0.00     0.000 N
ATOM     28  HD  SGN F 505     -17.693  47.121 174.5780  0.00  0.00     0.000 HD
ATOM     28   S  SGN F 505     -17.779  47.065 176.5860  0.00  0.00     0.000 S
ATOM     29   O  SGN F 505     -17.127  47.904 177.5670  0.00  0.00     0.000 OA
ATOM     30   O  SGN F 505     -19.207  46.979 176.7950  0.00  0.00     0.000 OA
ATOM     31   O  SGN F 505     -17.195  45.779 176.4680  0.00  0.00     0.000 OA
ATOM     32   O  SGN F 505     -19.600  48.969 173.2630  0.00  0.00     0.000 O
ATOM     34  HD  SGN F 505     -19.681  48.279 172.7460  0.00  0.00     0.000 HD
ATOM     34   C  SGN F 505     -17.737  53.387 174.3990  0.00  0.00     0.000 C
ATOM     35   O  SGN F 505     -18.812  53.535 175.2630  0.00  0.00     0.000 O
ATOM     36   S  SGN F 505     -19.306  54.828 175.9030  0.00  0.00     0.000 S
ATOM     37   O  SGN F 505     -20.698  54.911 175.5390  0.00  0.00     0.000 OA
ATOM     38   O  SGN F 505     -19.065  54.643 177.3180  0.00  0.00     0.000 OA
ATOM     39   O  SGN F 505     -18.511  55.914 175.3430  0.00  0.00     0.000 OA
BRANCH 20 40
ATOM     40  O4  IDS F 504     -15.660  49.887 174.6880  0.00  0.00     0.000 O
BRANCH 40 44
ATOM     41  C1  IDS F 504     -12.482  49.709 173.2520  0.00  0.00     0.000 C
ATOM     42  C2  IDS F 504     -13.186  48.447 173.6840  0.00  0.00     0.000 C
ATOM     43  C3  IDS F 504     -13.742  48.534 175.1570  0.00  0.00     0.000 C
ATOM     44  C4  IDS F 504     -14.441  49.854 175.4180  0.00  0.00     0.000 C
ATOM     45  C5  IDS F 504     -13.533  50.999 174.9690  0.00  0.00     0.000 C
ATOM     46  O5  IDS F 504     -13.246  50.875 173.5940  0.00  0.00     0.000 O
ATOM     47   O  IDS F 504     -15.011  45.941 172.7520  0.00  0.00     0.000 OA
ATOM     48   O  IDS F 504     -15.298  47.265 170.8120  0.00  0.00     0.000 OA
ATOM     49   O  IDS F 504     -13.107  46.572 171.5350  0.00  0.00     0.000 OA
ATOM     50   O  IDS F 504     -14.251  48.181 172.7640  0.00  0.00     0.000 O
ATOM     51   S  IDS F 504     -14.430  46.919 171.9060  0.00  0.00     0.000 S
ATOM     52   O  IDS F 504     -12.661  48.446 176.0800  0.00  0.00     0.000 O
ATOM     54  HD  IDS F 504     -12.774  48.123 175.2840  0.00  0.00     0.000 HD
ATOM     54   C  IDS F 504     -14.051  52.405 175.2870  0.00  0.00     0.000 C
ATOM     55   O  IDS F 504     -14.624  53.080 174.4340  0.00  0.00     0.000 OA
ATOM     56   O  IDS F 504     -13.918  52.899 176.4140  0.00  0.00     0.000 OA
BRANCH 41 57
ATOM     57  O4  SGN F 503     -11.204  49.725 173.8180  0.00  0.00     0.000 O
BRANCH 57 61
ATOM     58  C1  SGN F 503      -7.415  50.696 172.6160  0.00  0.00     0.000 C
ATOM     59  C2  SGN F 503      -8.349  51.874 172.9330  0.00  0.00     0.000 C
ATOM     60  C3  SGN F 503      -9.558  51.424 173.7360  0.00  0.00     0.000 C
ATOM     61  C4  SGN F 503     -10.225  50.267 172.9950  0.00  0.00     0.000 C
ATOM     62  C5  SGN F 503      -9.187  49.173 172.6760  0.00  0.00     0.000 C
ATOM     63  O5  SGN F 503      -8.124  49.696 171.9390  0.00  0.00     0.000 O
ATOM     64   N  SGN F 503      -7.627  52.934 173.6110  0.00  0.00     0.000 N
ATOM     66  HD  SGN F 503      -7.631  52.387 172.9400  0.00  0.00     0.000 HD
ATOM     66   S  SGN F 503      -6.856  54.032 172.6860  0.00  0.00     0.000 S
ATOM     67   O  SGN F 503      -5.756  53.326 172.0570  0.00  0.00     0.000 OA
ATOM     68   O  SGN F 503      -7.806  54.551 171.7040  0.00  0.00     0.000 OA
ATOM     69   O  SGN F 503      -6.406  55.016 173.6460  0.00  0.00     0.000 OA
ATOM     70   O  SGN F 503     -10.496  52.487 173.8260  0.00  0.00     0.000 O
ATOM     72  HD  SGN F 503     -10.499  51.940 173.1550  0.00  0.00     0.000 HD
ATOM     72   C  SGN F 503      -9.716  48.042 171.8330  0.00  0.00     0.000 C
ATOM     73   O  SGN F 503     -10.167  48.597 170.6190  0.00  0.00     0.000 O
ATOM     74   S  SGN F 503     -10.172  47.872 169.2430  0.00  0.00     0.000 S
ATOM     75   O  SGN F 503     -10.417  46.485 169.4650  0.00  0.00     0.000 OA
ATOM     76   O  SGN F 503     -11.223  48.488 168.4350  0.00  0.00     0.000 OA
ATOM     77   O  SGN F 503      -8.862  48.067 168.7590  0.00  0.00     0.000 OA
BRANCH 58 78
ATOM     78  O4  IDS F 502      -6.820  50.200 173.7910  0.00  0.00     0.000 O
BRANCH 78 82
ATOM     79  C1  IDS F 502      -4.771  48.875 176.2800  0.00  0.00     0.000 C
ATOM     80  C2  IDS F 502      -5.055  50.369 176.2080  0.00  0.00     0.000 C
ATOM     81  C3  IDS F 502      -4.775  50.937 174.8150  0.00  0.00     0.000 C
ATOM     82  C4  IDS F 502      -5.430  50.063 173.7240  0.00  0.00     0.000 C
ATOM     83  C5  IDS F 502      -5.052  48.596 173.9410  0.00  0.00     0.000 C
ATOM     84  O5  IDS F 502      -5.411  48.179 175.2420  0.00  0.00     0.000 O
ATOM     85   O  IDS F 502      -3.377  48.695 176.2720  0.00  0.00     0.000 OA
ATOM     86   O  IDS F 502      -6.414  50.568 176.4790  0.00  0.00     0.000 O
ATOM     87   S  IDS F 502      -7.126  51.895 176.8990  0.00  0.00     0.000 S
ATOM     88   O  IDS F 502      -6.398  52.981 176.2970  0.00  0.00     0.000 OA
ATOM     89   O  IDS F 502      -8.478  51.802 176.3960  0.00  0.00     0.000 OA
ATOM     90   O  IDS F 502      -7.040  51.923 178.3350  0.00  0.00     0.000 OA
ATOM     91   O  IDS F 502      -3.376  50.947 174.6160  0.00  0.00     0.000 O
ATOM     93  HD  IDS F 502      -3.276  50.255 174.1050  0.00  0.00     0.000 HD
ATOM     93   O  IDS F 502      -6.419  46.804 173.1890  0.00  0.00     0.000 OA
ATOM     94   O  IDS F 502      -5.273  47.730 171.7300  0.00  0.00     0.000 OA
ATOM     95   C  IDS F 502      -5.615  47.652 172.8950  0.00  0.00     0.000 C
ENDBRANCH 78 82
ENDBRANCH 58 78
ENDBRANCH 57 61
ENDBRANCH 41 57
ENDBRANCH 40 44
ENDBRANCH 20 40
ENDBRANCH 19 23
ENDBRANCH 1 19
TORSDOF 8
ENDMDL
MODEL 12
REMARK VINA RESULT:       6.3      2.240      3.139
ROOT
ATOM      1  C1  IDS F 506     -19.547  55.025 171.5300  0.00  0.00     0.000 C
ATOM      2  C2  IDS F 506     -20.911  54.769 170.8690  0.00  0.00     0.000 C
ATOM      3  C3  IDS F 506     -21.524  56.036 170.2250  0.00  0.00     0.000 C
ATOM      4  C4  IDS F 506     -20.486  56.954 169.5370  0.00  0.00     0.000 C
ATOM      5  C5  IDS F 506     -19.193  57.004 170.3580  0.00  0.00     0.000 C
ATOM      6  O5  IDS F 506     -18.737  55.718 170.6180  0.00  0.00     0.000 O
ATOM      7   S  IDS F 506     -21.922  52.929 169.1680  0.00  0.00     0.000 S
ATOM      8   O  IDS F 506     -22.928  53.872 168.7820  0.00  0.00     0.000 OA
ATOM      9   O  IDS F 506     -21.358  52.274 168.0240  0.00  0.00     0.000 OA
ATOM     10   O  IDS F 506     -22.365  52.009 170.1900  0.00  0.00     0.000 OA
ATOM     11   O  IDS F 506     -20.781  53.803 169.8460  0.00  0.00     0.000 O
ATOM     12   O  IDS F 506     -22.192  56.787 171.2340  0.00  0.00     0.000 O
ATOM     14  HD  IDS F 506     -22.279  57.647 171.2880  0.00  0.00     0.000 HD
ATOM     14   O  IDS F 506     -20.220  56.411 168.2680  0.00  0.00     0.000 O
ATOM     16  HD  IDS F 506     -20.306  57.271 168.3210  0.00  0.00     0.000 HD
ATOM     16   O  IDS F 506     -16.906  57.424 169.8460  0.00  0.00     0.000 OA
ATOM     17   O  IDS F 506     -18.252  58.917 169.2650  0.00  0.00     0.000 OA
ATOM     18   C  IDS F 506     -18.059  57.830 169.7860  0.00  0.00     0.000 C
ENDROOT
BRANCH 1 19
ATOM     19  O4  SGN F 505     -18.942  53.807 171.8020  0.00  0.00     0.000 O
BRANCH 19 23
ATOM     20  C1  SGN F 505     -18.013  51.329 175.0250  0.00  0.00     0.000 C
ATOM     21  C2  SGN F 505     -19.405  51.147 174.4420  0.00  0.00     0.000 C
ATOM     22  C3  SGN F 505     -19.463  51.653 172.9930  0.00  0.00     0.000 C
ATOM     23  C4  SGN F 505     -19.021  53.150 173.0490  0.00  0.00     0.000 C
ATOM     24  C5  SGN F 505     -17.640  53.162 173.6160  0.00  0.00     0.000 C
ATOM     25  O5  SGN F 505     -17.647  52.677 174.9210  0.00  0.00     0.000 O
ATOM     26   N  SGN F 505     -19.830  49.741 174.6440  0.00  0.00     0.000 N
ATOM     28  HD  SGN F 505     -20.207  49.134 174.1540  0.00  0.00     0.000 HD
ATOM     28   S  SGN F 505     -20.471  49.331 176.1370  0.00  0.00     0.000 S
ATOM     29   O  SGN F 505     -19.567  49.829 177.1490  0.00  0.00     0.000 OA
ATOM     30   O  SGN F 505     -21.758  49.989 176.1760  0.00  0.00     0.000 OA
ATOM     31   O  SGN F 505     -20.611  47.921 176.1500  0.00  0.00     0.000 OA
ATOM     32   O  SGN F 505     -20.804  51.543 172.5330  0.00  0.00     0.000 O
ATOM     34  HD  SGN F 505     -21.181  50.936 172.0440  0.00  0.00     0.000 HD
ATOM     34   C  SGN F 505     -17.060  54.536 173.6790  0.00  0.00     0.000 C
ATOM     35   O  SGN F 505     -17.979  55.285 174.4000  0.00  0.00     0.000 O
ATOM     36   S  SGN F 505     -17.801  56.710 174.9140  0.00  0.00     0.000 S
ATOM     37   O  SGN F 505     -18.925  57.437 174.3810  0.00  0.00     0.000 OA
ATOM     38   O  SGN F 505     -17.802  56.573 176.3540  0.00  0.00     0.000 OA
ATOM     39   O  SGN F 505     -16.524  57.192 174.4040  0.00  0.00     0.000 OA
BRANCH 20 40
ATOM     40  O4  IDS F 504     -17.071  50.516 174.3790  0.00  0.00     0.000 O
BRANCH 40 44
ATOM     41  C1  IDS F 504     -15.000  47.857 173.4660  0.00  0.00     0.000 C
ATOM     42  C2  IDS F 504     -16.372  47.585 174.0280  0.00  0.00     0.000 C
ATOM     43  C3  IDS F 504     -16.650  48.375 175.3640  0.00  0.00     0.000 C
ATOM     44  C4  IDS F 504     -16.204  49.821 175.2660  0.00  0.00     0.000 C
ATOM     45  C5  IDS F 504     -14.771  49.868 174.7380  0.00  0.00     0.000 C
ATOM     46  O5  IDS F 504     -14.705  49.262 173.4670  0.00  0.00     0.000 O
ATOM     47   O  IDS F 504     -19.466  46.918 173.3470  0.00  0.00     0.000 OA
ATOM     48   O  IDS F 504     -18.806  47.565 171.1690  0.00  0.00     0.000 OA
ATOM     49   O  IDS F 504     -17.718  45.745 172.3120  0.00  0.00     0.000 OA
ATOM     50   O  IDS F 504     -17.347  47.923 173.0360  0.00  0.00     0.000 O
ATOM     51   S  IDS F 504     -18.395  46.985 172.4190  0.00  0.00     0.000 S
ATOM     52   O  IDS F 504     -15.914  47.783 176.4300  0.00  0.00     0.000 O
ATOM     54  HD  IDS F 504     -16.250  47.454 175.7030  0.00  0.00     0.000 HD
ATOM     54   C  IDS F 504     -14.134  51.261 174.7050  0.00  0.00     0.000 C
ATOM     55   O  IDS F 504     -14.095  51.918 173.6670  0.00  0.00     0.000 OA
ATOM     56   O  IDS F 504     -13.650  51.771 175.7240  0.00  0.00     0.000 OA
BRANCH 41 57
ATOM     57  O4  SGN F 503     -14.063  47.117 174.1920  0.00  0.00     0.000 O
BRANCH 57 61
ATOM     58  C1  SGN F 503     -12.424  43.376 173.9280  0.00  0.00     0.000 C
ATOM     59  C2  SGN F 503     -12.608  44.133 172.6020  0.00  0.00     0.000 C
ATOM     60  C3  SGN F 503     -12.833  45.616 172.8360  0.00  0.00     0.000 C
ATOM     61  C4  SGN F 503     -13.986  45.779 173.8240  0.00  0.00     0.000 C
ATOM     62  C5  SGN F 503     -13.726  44.934 175.0860  0.00  0.00     0.000 C
ATOM     63  O5  SGN F 503     -13.533  43.593 174.7550  0.00  0.00     0.000 O
ATOM     64   N  SGN F 503     -11.482  43.900 171.7190  0.00  0.00     0.000 N
ATOM     66  HD  SGN F 503     -12.071  43.534 172.2370  0.00  0.00     0.000 HD
ATOM     66   S  SGN F 503     -11.534  42.581 170.7620  0.00  0.00     0.000 S
ATOM     67   O  SGN F 503     -11.413  41.438 171.6470  0.00  0.00     0.000 OA
ATOM     68   O  SGN F 503     -12.807  42.586 170.0450  0.00  0.00     0.000 OA
ATOM     69   O  SGN F 503     -10.378  42.745 169.9090  0.00  0.00     0.000 OA
ATOM     70   O  SGN F 503     -13.207  46.242 171.6170  0.00  0.00     0.000 O
ATOM     72  HD  SGN F 503     -13.797  45.877 172.1350  0.00  0.00     0.000 HD
ATOM     72   C  SGN F 503     -14.865  44.924 176.0730  0.00  0.00     0.000 C
ATOM     73   O  SGN F 503     -15.992  44.401 175.4090  0.00  0.00     0.000 O
ATOM     74   S  SGN F 503     -17.143  43.599 176.0820  0.00  0.00     0.000 S
ATOM     75   O  SGN F 503     -17.331  44.103 177.4020  0.00  0.00     0.000 OA
ATOM     76   O  SGN F 503     -18.335  43.781 175.2550  0.00  0.00     0.000 OA
ATOM     77   O  SGN F 503     -16.648  42.279 176.1270  0.00  0.00     0.000 OA
BRANCH 58 78
ATOM     78  O4  IDS F 502     -11.227  43.759 174.5600  0.00  0.00     0.000 O
BRANCH 78 82
ATOM     79  C1  IDS F 502      -8.237  44.021 176.3330  0.00  0.00     0.000 C
ATOM     80  C2  IDS F 502      -8.246  43.960 174.8110  0.00  0.00     0.000 C
ATOM     81  C3  IDS F 502      -9.054  42.769 174.2920  0.00  0.00     0.000 C
ATOM     82  C4  IDS F 502     -10.430  42.693 174.9890  0.00  0.00     0.000 C
ATOM     83  C5  IDS F 502     -10.247  42.772 176.5060  0.00  0.00     0.000 C
ATOM     84  O5  IDS F 502      -9.537  43.941 176.8580  0.00  0.00     0.000 O
ATOM     85   O  IDS F 502      -7.399  42.996 176.8060  0.00  0.00     0.000 OA
ATOM     86   O  IDS F 502      -8.859  45.125 174.3330  0.00  0.00     0.000 O
ATOM     87   S  IDS F 502      -8.784  45.728 172.8920  0.00  0.00     0.000 S
ATOM     88   O  IDS F 502      -8.627  44.628 171.9760  0.00  0.00     0.000 OA
ATOM     89   O  IDS F 502     -10.028  46.434 172.6870  0.00  0.00     0.000 OA
ATOM     90   O  IDS F 502      -7.625  46.581 172.9080  0.00  0.00     0.000 OA
ATOM     91   O  IDS F 502      -8.330  41.589 174.5770  0.00  0.00     0.000 O
ATOM     93  HD  IDS F 502      -8.763  41.291 175.2650  0.00  0.00     0.000 HD
ATOM     93   O  IDS F 502     -11.945  43.589 177.9520  0.00  0.00     0.000 OA
ATOM     94   O  IDS F 502     -12.208  41.650 177.2660  0.00  0.00     0.000 OA
ATOM     95   C  IDS F 502     -11.541  42.667 177.2910  0.00  0.00     0.000 C
ENDBRANCH 78 82
ENDBRANCH 58 78
ENDBRANCH 57 61
ENDBRANCH 41 57
ENDBRANCH 40 44
ENDBRANCH 20 40
ENDBRANCH 19 23
ENDBRANCH 1 19
TORSDOF 8
ENDMDL
MODEL 13
REMARK VINA RESULT:       6.3      2.464      4.986
ROOT
ATOM      1  C1  IDS F 506     -19.986  55.923 169.3910  0.00  0.00     0.000 C
ATOM      2  C2  IDS F 506     -21.130  55.603 168.4140  0.00  0.00     0.000 C
ATOM      3  C3  IDS F 506     -21.180  56.562 167.2000  0.00  0.00     0.000 C
ATOM      4  C4  IDS F 506     -19.788  56.969 166.6630  0.00  0.00     0.000 C
ATOM      5  C5  IDS F 506     -18.810  57.179 167.8240  0.00  0.00     0.000 C
ATOM      6  O5  IDS F 506     -18.802  56.065 168.6540  0.00  0.00     0.000 O
ATOM      7   S  IDS F 506     -22.074  53.379 167.2040  0.00  0.00     0.000 S
ATOM      8   O  IDS F 506     -22.645  54.205 166.1830  0.00  0.00     0.000 OA
ATOM      9   O  IDS F 506     -21.407  52.243 166.6380  0.00  0.00     0.000 OA
ATOM     10   O  IDS F 506     -23.011  53.029 168.2460  0.00  0.00     0.000 OA
ATOM     11   O  IDS F 506     -20.979  54.293 167.9030  0.00  0.00     0.000 O
ATOM     12   O  IDS F 506     -21.880  57.744 167.5780  0.00  0.00     0.000 O
ATOM     14  HD  IDS F 506     -21.748  58.553 167.2980  0.00  0.00     0.000 HD
ATOM     14   O  IDS F 506     -19.331  55.921 165.8430  0.00  0.00     0.000 O
ATOM     16  HD  IDS F 506     -19.198  56.730 165.5640  0.00  0.00     0.000 HD
ATOM     16   O  IDS F 506     -16.445  57.041 168.0600  0.00  0.00     0.000 OA
ATOM     17   O  IDS F 506     -17.130  58.327 166.5590  0.00  0.00     0.000 OA
ATOM     18   C  IDS F 506     -17.385  57.536 167.4530  0.00  0.00     0.000 C
ENDROOT
BRANCH 1 19
ATOM     19  O4  SGN F 505     -19.826  54.856 170.2620  0.00  0.00     0.000 O
BRANCH 19 23
ATOM     20  C1  SGN F 505     -20.566  53.708 174.2020  0.00  0.00     0.000 C
ATOM     21  C2  SGN F 505     -21.783  53.739 173.2920  0.00  0.00     0.000 C
ATOM     22  C3  SGN F 505     -21.369  53.620 171.8180  0.00  0.00     0.000 C
ATOM     23  C4  SGN F 505     -20.386  54.806 171.5570  0.00  0.00     0.000 C
ATOM     24  C5  SGN F 505     -19.244  54.624 172.5000  0.00  0.00     0.000 C
ATOM     25  O5  SGN F 505     -19.681  54.723 173.8180  0.00  0.00     0.000 O
ATOM     26   N  SGN F 505     -22.762  52.730 173.7640  0.00  0.00     0.000 N
ATOM     28  HD  SGN F 505     -23.253  52.124 173.3870  0.00  0.00     0.000 HD
ATOM     28   S  SGN F 505     -23.774  53.162 175.0270  0.00  0.00     0.000 S
ATOM     29   O  SGN F 505     -22.948  53.721 176.0740  0.00  0.00     0.000 OA
ATOM     30   O  SGN F 505     -24.676  54.138 174.4570  0.00  0.00     0.000 OA
ATOM     31   O  SGN F 505     -24.463  51.988 175.4200  0.00  0.00     0.000 OA
ATOM     32   O  SGN F 505     -22.535  53.749 171.0140  0.00  0.00     0.000 O
ATOM     34  HD  SGN F 505     -23.026  53.143 170.6370  0.00  0.00     0.000 HD
ATOM     34   C  SGN F 505     -18.187  55.663 172.3260  0.00  0.00     0.000 C
ATOM     35   O  SGN F 505     -18.846  56.877 172.4580  0.00  0.00     0.000 O
ATOM     36   S  SGN F 505     -18.214  58.261 172.5470  0.00  0.00     0.000 S
ATOM     37   O  SGN F 505     -18.837  59.020 171.4920  0.00  0.00     0.000 OA
ATOM     38   O  SGN F 505     -18.532  58.715 173.8830  0.00  0.00     0.000 OA
ATOM     39   O  SGN F 505     -16.780  58.090 172.3470  0.00  0.00     0.000 OA
BRANCH 20 40
ATOM     40  O4  IDS F 504     -19.924  52.461 174.1640  0.00  0.00     0.000 O
BRANCH 40 44
ATOM     41  C1  IDS F 504     -18.799  49.222 174.8230  0.00  0.00     0.000 C
ATOM     42  C2  IDS F 504     -20.248  49.577 175.0460  0.00  0.00     0.000 C
ATOM     43  C3  IDS F 504     -20.428  50.890 175.9000  0.00  0.00     0.000 C
ATOM     44  C4  IDS F 504     -19.496  51.994 175.4370  0.00  0.00     0.000 C
ATOM     45  C5  IDS F 504     -18.075  51.441 175.3380  0.00  0.00     0.000 C
ATOM     46  O5  IDS F 504     -18.037  50.370 174.4220  0.00  0.00     0.000 O
ATOM     47   O  IDS F 504     -23.242  49.526 173.8170  0.00  0.00     0.000 OA
ATOM     48   O  IDS F 504     -22.083  49.016 171.8180  0.00  0.00     0.000 OA
ATOM     49   O  IDS F 504     -21.879  47.616 173.7680  0.00  0.00     0.000 OA
ATOM     50   O  IDS F 504     -20.884  49.718 173.7720  0.00  0.00     0.000 O
ATOM     51   S  IDS F 504     -22.090  48.920 173.2530  0.00  0.00     0.000 S
ATOM     52   O  IDS F 504     -20.110  50.621 177.2620  0.00  0.00     0.000 O
ATOM     54  HD  IDS F 504     -20.429  50.123 176.6290  0.00  0.00     0.000 HD
ATOM     54   C  IDS F 504     -16.995  52.475 175.0040  0.00  0.00     0.000 C
ATOM     55   O  IDS F 504     -16.576  52.609 173.8570  0.00  0.00     0.000 OA
ATOM     56   O  IDS F 504     -16.521  53.214 175.8780  0.00  0.00     0.000 OA
BRANCH 41 57
ATOM     57  O4  SGN F 503     -18.298  48.631 175.9860  0.00  0.00     0.000 O
BRANCH 57 61
ATOM     58  C1  SGN F 503     -15.675  46.314 173.8640  0.00  0.00     0.000 C
ATOM     59  C2  SGN F 503     -16.988  45.638 174.2890  0.00  0.00     0.000 C
ATOM     60  C3  SGN F 503     -18.032  46.661 174.7000  0.00  0.00     0.000 C
ATOM     61  C4  SGN F 503     -17.420  47.578 175.7560  0.00  0.00     0.000 C
ATOM     62  C5  SGN F 503     -16.083  48.152 175.2490  0.00  0.00     0.000 C
ATOM     63  O5  SGN F 503     -15.202  47.128 174.9010  0.00  0.00     0.000 O
ATOM     64   N  SGN F 503     -17.481  44.768 173.2390  0.00  0.00     0.000 N
ATOM     66  HD  SGN F 503     -16.794  44.997 173.7140  0.00  0.00     0.000 HD
ATOM     66   S  SGN F 503     -16.918  43.239 173.1990  0.00  0.00     0.000 S
ATOM     67   O  SGN F 503     -15.520  43.335 172.8260  0.00  0.00     0.000 OA
ATOM     68   O  SGN F 503     -17.091  42.654 174.5270  0.00  0.00     0.000 OA
ATOM     69   O  SGN F 503     -17.724  42.616 172.1740  0.00  0.00     0.000 OA
ATOM     70   O  SGN F 503     -19.146  46.001 175.2830  0.00  0.00     0.000 O
ATOM     72  HD  SGN F 503     -18.459  46.230 175.7580  0.00  0.00     0.000 HD
ATOM     72   C  SGN F 503     -15.332  48.972 176.2670  0.00  0.00     0.000 C
ATOM     73   O  SGN F 503     -15.070  48.135 177.3700  0.00  0.00     0.000 O
ATOM     74   S  SGN F 503     -13.843  48.253 178.3190  0.00  0.00     0.000 S
ATOM     75   O  SGN F 503     -13.497  49.630 178.4400  0.00  0.00     0.000 OA
ATOM     76   O  SGN F 503     -14.235  47.674 179.6030  0.00  0.00     0.000 OA
ATOM     77   O  SGN F 503     -12.827  47.550 177.6380  0.00  0.00     0.000 OA
BRANCH 58 78
ATOM     78  O4  IDS F 502     -15.852  47.046 172.6750  0.00  0.00     0.000 O
BRANCH 78 82
ATOM     79  C1  IDS F 502     -15.461  48.821 169.7010  0.00  0.00     0.000 C
ATOM     80  C2  IDS F 502     -16.332  47.574 169.7630  0.00  0.00     0.000 C
ATOM     81  C3  IDS F 502     -15.588  46.387 170.3800  0.00  0.00     0.000 C
ATOM     82  C4  IDS F 502     -14.888  46.800 171.6930  0.00  0.00     0.000 C
ATOM     83  C5  IDS F 502     -14.062  48.067 171.4620  0.00  0.00     0.000 C
ATOM     84  O5  IDS F 502     -14.874  49.101 170.9450  0.00  0.00     0.000 O
ATOM     85   O  IDS F 502     -14.509  48.637 168.6830  0.00  0.00     0.000 OA
ATOM     86   O  IDS F 502     -17.433  47.852 170.5830  0.00  0.00     0.000 O
ATOM     87   S  IDS F 502     -18.787  47.074 170.6710  0.00  0.00     0.000 S
ATOM     88   O  IDS F 502     -18.508  45.695 170.3700  0.00  0.00     0.000 OA
ATOM     89   O  IDS F 502     -19.264  47.251 172.0240  0.00  0.00     0.000 OA
ATOM     90   O  IDS F 502     -19.627  47.681 169.6740  0.00  0.00     0.000 OA
ATOM     91   O  IDS F 502     -14.611  45.953 169.4560  0.00  0.00     0.000 O
ATOM     93  HD  IDS F 502     -13.893  46.291 169.8030  0.00  0.00     0.000 HD
ATOM     93   O  IDS F 502     -13.553  49.591 173.2110  0.00  0.00     0.000 OA
ATOM     94   O  IDS F 502     -12.413  47.860 173.1720  0.00  0.00     0.000 OA
ATOM     95   C  IDS F 502     -13.298  48.538 172.6860  0.00  0.00     0.000 C
ENDBRANCH 78 82
ENDBRANCH 58 78
ENDBRANCH 57 61
ENDBRANCH 41 57
ENDBRANCH 40 44
ENDBRANCH 20 40
ENDBRANCH 19 23
ENDBRANCH 1 19
TORSDOF 8
ENDMDL
MODEL 14
REMARK VINA RESULT:       6.4      4.187      7.496
ROOT
ATOM      1  C1  IDS F 506     -16.285  53.602 174.3250  0.00  0.00     0.000 C
ATOM      2  C2  IDS F 506     -17.793  53.866 174.1790  0.00  0.00     0.000 C
ATOM      3  C3  IDS F 506     -18.242  55.201 174.8210  0.00  0.00     0.000 C
ATOM      4  C4  IDS F 506     -17.229  56.355 174.6440  0.00  0.00     0.000 C
ATOM      5  C5  IDS F 506     -15.795  55.831 174.7800  0.00  0.00     0.000 C
ATOM      6  O5  IDS F 506     -15.593  54.754 173.9260  0.00  0.00     0.000 O
ATOM      7   S  IDS F 506     -19.586  53.772 172.1600  0.00  0.00     0.000 S
ATOM      8   O  IDS F 506     -20.415  54.687 172.8840  0.00  0.00     0.000 OA
ATOM      9   O  IDS F 506     -19.489  54.143 170.7780  0.00  0.00     0.000 OA
ATOM     10   O  IDS F 506     -19.956  52.389 172.3550  0.00  0.00     0.000 OA
ATOM     11   O  IDS F 506     -18.145  53.923 172.8110  0.00  0.00     0.000 O
ATOM     12   O  IDS F 506     -18.449  54.992 176.2160  0.00  0.00     0.000 O
ATOM     14  HD  IDS F 506     -18.322  55.555 176.8620  0.00  0.00     0.000 HD
ATOM     14   O  IDS F 506     -17.418  56.887 173.3560  0.00  0.00     0.000 O
ATOM     16  HD  IDS F 506     -17.291  57.449 174.0030  0.00  0.00     0.000 HD
ATOM     16   O  IDS F 506     -13.674  56.537 173.9600  0.00  0.00     0.000 OA
ATOM     17   O  IDS F 506     -14.748  57.969 175.0430  0.00  0.00     0.000 OA
ATOM     18   C  IDS F 506     -14.683  56.841 174.5830  0.00  0.00     0.000 C
ENDROOT
BRANCH 1 19
ATOM     19  O4  SGN F 505     -15.924  52.567 173.4750  0.00  0.00     0.000 O
BRANCH 19 23
ATOM     20  C1  SGN F 505     -15.293  48.458 173.8080  0.00  0.00     0.000 C
ATOM     21  C2  SGN F 505     -16.564  48.867 173.0800  0.00  0.00     0.000 C
ATOM     22  C3  SGN F 505     -16.446  50.295 172.5290  0.00  0.00     0.000 C
ATOM     23  C4  SGN F 505     -16.136  51.202 173.7630  0.00  0.00     0.000 C
ATOM     24  C5  SGN F 505     -14.860  50.695 174.3490  0.00  0.00     0.000 C
ATOM     25  O5  SGN F 505     -15.022  49.393 174.8140  0.00  0.00     0.000 O
ATOM     26   N  SGN F 505     -16.903  47.824 172.0830  0.00  0.00     0.000 N
ATOM     28  HD  SGN F 505     -17.155  47.822 171.2540  0.00  0.00     0.000 HD
ATOM     28   S  SGN F 505     -17.725  46.468 172.6260  0.00  0.00     0.000 S
ATOM     29   O  SGN F 505     -17.023  45.971 173.7880  0.00  0.00     0.000 OA
ATOM     30   O  SGN F 505     -19.051  46.947 172.9460  0.00  0.00     0.000 OA
ATOM     31   O  SGN F 505     -17.754  45.547 171.5490  0.00  0.00     0.000 OA
ATOM     32   O  SGN F 505     -17.691  50.654 171.9430  0.00  0.00     0.000 O
ATOM     34  HD  SGN F 505     -17.943  50.652 171.1150  0.00  0.00     0.000 HD
ATOM     34   C  SGN F 505     -14.405  51.507 175.5160  0.00  0.00     0.000 C
ATOM     35   O  SGN F 505     -15.476  51.508 176.3980  0.00  0.00     0.000 O
ATOM     36   S  SGN F 505     -15.489  52.037 177.8280  0.00  0.00     0.000 S
ATOM     37   O  SGN F 505     -16.575  52.984 177.8610  0.00  0.00     0.000 OA
ATOM     38   O  SGN F 505     -15.694  50.860 178.6430  0.00  0.00     0.000 OA
ATOM     39   O  SGN F 505     -14.192  52.658 178.0660  0.00  0.00     0.000 OA
BRANCH 20 40
ATOM     40  O4  IDS F 504     -14.205  48.358 172.9290  0.00  0.00     0.000 O
BRANCH 40 44
ATOM     41  C1  IDS F 504     -11.537  47.343 170.9180  0.00  0.00     0.000 C
ATOM     42  C2  IDS F 504     -12.867  46.640 170.8170  0.00  0.00     0.000 C
ATOM     43  C3  IDS F 504     -13.433  46.204 172.2230  0.00  0.00     0.000 C
ATOM     44  C4  IDS F 504     -13.299  47.311 173.2510  0.00  0.00     0.000 C
ATOM     45  C5  IDS F 504     -11.865  47.839 173.2340  0.00  0.00     0.000 C
ATOM     46  O5  IDS F 504     -11.550  48.338 171.9530  0.00  0.00     0.000 O
ATOM     47   O  IDS F 504     -15.667  46.417 169.2090  0.00  0.00     0.000 OA
ATOM     48   O  IDS F 504     -14.955  48.482 168.2980  0.00  0.00     0.000 OA
ATOM     49   O  IDS F 504     -13.618  46.491 168.0690  0.00  0.00     0.000 OA
ATOM     50   O  IDS F 504     -13.792  47.508 170.1530  0.00  0.00     0.000 O
ATOM     51   S  IDS F 504     -14.552  47.216 168.8500  0.00  0.00     0.000 S
ATOM     52   O  IDS F 504     -12.693  45.090 172.7110  0.00  0.00     0.000 O
ATOM     54  HD  IDS F 504     -12.880  45.357 171.9090  0.00  0.00     0.000 HD
ATOM     54   C  IDS F 504     -11.539  48.878 174.3120  0.00  0.00     0.000 C
ATOM     55   O  IDS F 504     -11.542  50.080 174.0580  0.00  0.00     0.000 OA
ATOM     56   O  IDS F 504     -11.275  48.537 175.4730  0.00  0.00     0.000 OA
BRANCH 41 57
ATOM     57  O4  SGN F 503     -10.537  46.386 171.1140  0.00  0.00     0.000 O
BRANCH 57 61
ATOM     58  C1  SGN F 503      -6.605  47.391 170.5890  0.00  0.00     0.000 C
ATOM     59  C2  SGN F 503      -7.638  48.346 169.9720  0.00  0.00     0.000 C
ATOM     60  C3  SGN F 503      -9.023  48.116 170.5520  0.00  0.00     0.000 C
ATOM     61  C4  SGN F 503      -9.365  46.635 170.4100  0.00  0.00     0.000 C
ATOM     62  C5  SGN F 503      -8.238  45.771 171.0070  0.00  0.00     0.000 C
ATOM     63  O5  SGN F 503      -7.014  46.064 170.4040  0.00  0.00     0.000 O
ATOM     64   N  SGN F 503      -7.220  49.726 170.1300  0.00  0.00     0.000 N
ATOM     66  HD  SGN F 503      -6.982  48.930 169.8850  0.00  0.00     0.000 HD
ATOM     66   S  SGN F 503      -6.233  50.350 168.9920  0.00  0.00     0.000 S
ATOM     67   O  SGN F 503      -4.961  49.670 169.1470  0.00  0.00     0.000 OA
ATOM     68   O  SGN F 503      -6.832  50.100 167.6820  0.00  0.00     0.000 OA
ATOM     69   O  SGN F 503      -6.161  51.749 169.3470  0.00  0.00     0.000 OA
ATOM     70   O  SGN F 503      -9.981  48.861 169.8140  0.00  0.00     0.000 O
ATOM     72  HD  SGN F 503      -9.743  48.065 169.5680  0.00  0.00     0.000 HD
ATOM     72   C  SGN F 503      -8.417  44.288 170.8040  0.00  0.00     0.000 C
ATOM     73   O  SGN F 503      -8.470  44.057 169.4160  0.00  0.00     0.000 O
ATOM     74   S  SGN F 503      -7.997  42.759 168.6990  0.00  0.00     0.000 S
ATOM     75   O  SGN F 503      -8.245  41.652 169.5620  0.00  0.00     0.000 OA
ATOM     76   O  SGN F 503      -8.751  42.658 167.4510  0.00  0.00     0.000 OA
ATOM     77   O  SGN F 503      -6.609  42.955 168.5390  0.00  0.00     0.000 OA
BRANCH 58 78
ATOM     78  O4  IDS F 502      -6.406  47.682 171.9520  0.00  0.00     0.000 O
BRANCH 78 82
ATOM     79  C1  IDS F 502      -5.238  48.203 175.1940  0.00  0.00     0.000 C
ATOM     80  C2  IDS F 502      -5.471  49.371 174.2460  0.00  0.00     0.000 C
ATOM     81  C3  IDS F 502      -4.770  49.163 172.9010  0.00  0.00     0.000 C
ATOM     82  C4  IDS F 502      -5.064  47.756 172.3390  0.00  0.00     0.000 C
ATOM     83  C5  IDS F 502      -4.786  46.702 173.4130  0.00  0.00     0.000 C
ATOM     84  O5  IDS F 502      -5.533  46.975 174.5800  0.00  0.00     0.000 O
ATOM     85   O  IDS F 502      -3.911  48.272 175.6530  0.00  0.00     0.000 OA
ATOM     86   O  IDS F 502      -6.845  49.460 173.9940  0.00  0.00     0.000 O
ATOM     87   S  IDS F 502      -7.640  50.676 173.4150  0.00  0.00     0.000 S
ATOM     88   O  IDS F 502      -6.750  51.388 172.5360  0.00  0.00     0.000 OA
ATOM     89   O  IDS F 502      -8.771  50.118 172.7110  0.00  0.00     0.000 OA
ATOM     90   O  IDS F 502      -8.000  51.463 174.5650  0.00  0.00     0.000 OA
ATOM     91   O  IDS F 502      -3.377  49.293 173.1060  0.00  0.00     0.000 O
ATOM     93  HD  IDS F 502      -3.132  48.463 173.1050  0.00  0.00     0.000 HD
ATOM     93   O  IDS F 502      -5.871  44.589 173.4340  0.00  0.00     0.000 OA
ATOM     94   O  IDS F 502      -4.323  44.787 172.0700  0.00  0.00     0.000 OA
ATOM     95   C  IDS F 502      -5.008  45.274 172.9500  0.00  0.00     0.000 C
ENDBRANCH 78 82
ENDBRANCH 58 78
ENDBRANCH 57 61
ENDBRANCH 41 57
ENDBRANCH 40 44
ENDBRANCH 20 40
ENDBRANCH 19 23
ENDBRANCH 1 19
TORSDOF 8
ENDMDL
MODEL 15
REMARK VINA RESULT:       6.7      3.285      6.783
ROOT
ATOM      1  C1  IDS F 506     -18.700  57.284 169.2990  0.00  0.00     0.000 C
ATOM      2  C2  IDS F 506     -19.919  57.017 168.4010  0.00  0.00     0.000 C
ATOM      3  C3  IDS F 506     -19.945  57.900 167.1300  0.00  0.00     0.000 C
ATOM      4  C4  IDS F 506     -18.552  58.136 166.5010  0.00  0.00     0.000 C
ATOM      5  C5  IDS F 506     -17.497  58.321 167.5970  0.00  0.00     0.000 C
ATOM      6  O5  IDS F 506     -17.548  57.265 168.4980  0.00  0.00     0.000 O
ATOM      7   S  IDS F 506     -21.132  54.825 167.3880  0.00  0.00     0.000 S
ATOM      8   O  IDS F 506     -21.677  55.638 166.3430  0.00  0.00     0.000 OA
ATOM      9   O  IDS F 506     -20.606  53.597 166.8670  0.00  0.00     0.000 OA
ATOM     10   O  IDS F 506     -22.040  54.632 168.4950  0.00  0.00     0.000 OA
ATOM     11   O  IDS F 506     -19.920  55.670 167.9720  0.00  0.00     0.000 O
ATOM     12   O  IDS F 506     -20.510  59.165 167.4610  0.00  0.00     0.000 O
ATOM     14  HD  IDS F 506     -20.317  59.939 167.1230  0.00  0.00     0.000 HD
ATOM     14   O  IDS F 506     -18.240  57.000 165.7320  0.00  0.00     0.000 O
ATOM     16  HD  IDS F 506     -18.048  57.774 165.3930  0.00  0.00     0.000 HD
ATOM     16   O  IDS F 506     -15.146  57.969 167.7280  0.00  0.00     0.000 OA
ATOM     17   O  IDS F 506     -15.788  59.221 166.1800  0.00  0.00     0.000 OA
ATOM     18   C  IDS F 506     -16.067  58.515 167.1350  0.00  0.00     0.000 C
ENDROOT
BRANCH 1 19
ATOM     19  O4  SGN F 505     -18.593  56.262 170.2300  0.00  0.00     0.000 O
BRANCH 19 23
ATOM     20  C1  SGN F 505     -18.677  55.490 174.3270  0.00  0.00     0.000 C
ATOM     21  C2  SGN F 505     -19.912  56.177 173.7670  0.00  0.00     0.000 C
ATOM     22  C3  SGN F 505     -20.043  55.925 172.2580  0.00  0.00     0.000 C
ATOM     23  C4  SGN F 505     -18.716  56.451 171.6240  0.00  0.00     0.000 C
ATOM     24  C5  SGN F 505     -17.609  55.671 172.2510  0.00  0.00     0.000 C
ATOM     25  O5  SGN F 505     -17.550  55.925 173.6180  0.00  0.00     0.000 O
ATOM     26   N  SGN F 505     -21.088  55.791 174.5840  0.00  0.00     0.000 N
ATOM     28  HD  SGN F 505     -21.899  55.538 174.4150  0.00  0.00     0.000 HD
ATOM     28   S  SGN F 505     -21.349  56.627 176.0120  0.00  0.00     0.000 S
ATOM     29   O  SGN F 505     -20.100  56.641 176.7410  0.00  0.00     0.000 OA
ATOM     30   O  SGN F 505     -21.758  57.949 175.5950  0.00  0.00     0.000 OA
ATOM     31   O  SGN F 505     -22.392  55.954 176.6960  0.00  0.00     0.000 OA
ATOM     32   O  SGN F 505     -21.158  56.665 171.7760  0.00  0.00     0.000 O
ATOM     34  HD  SGN F 505     -21.969  56.411 171.6070  0.00  0.00     0.000 HD
ATOM     34   C  SGN F 505     -16.271  56.031 171.6970  0.00  0.00     0.000 C
ATOM     35   O  SGN F 505     -16.166  57.404 171.8630  0.00  0.00     0.000 O
ATOM     36   S  SGN F 505     -14.928  58.266 171.6340  0.00  0.00     0.000 S
ATOM     37   O  SGN F 505     -15.353  59.280 170.7030  0.00  0.00     0.000 OA
ATOM     38   O  SGN F 505     -14.590  58.762 172.9500  0.00  0.00     0.000 OA
ATOM     39   O  SGN F 505     -13.896  57.394 171.0880  0.00  0.00     0.000 OA
BRANCH 20 40
ATOM     40  O4  IDS F 504     -18.787  54.093 174.2590  0.00  0.00     0.000 O
BRANCH 40 44
ATOM     41  C1  IDS F 504     -19.139  50.702 175.0130  0.00  0.00     0.000 C
ATOM     42  C2  IDS F 504     -19.928  51.732 175.7830  0.00  0.00     0.000 C
ATOM     43  C3  IDS F 504     -19.028  52.907 176.3250  0.00  0.00     0.000 C
ATOM     44  C4  IDS F 504     -18.060  53.408 175.2700  0.00  0.00     0.000 C
ATOM     45  C5  IDS F 504     -17.321  52.215 174.6630  0.00  0.00     0.000 C
ATOM     46  O5  IDS F 504     -18.244  51.323 174.0790  0.00  0.00     0.000 O
ATOM     47   O  IDS F 504     -22.760  53.273 176.0720  0.00  0.00     0.000 OA
ATOM     48   O  IDS F 504     -23.133  52.351 173.9250  0.00  0.00     0.000 OA
ATOM     49   O  IDS F 504     -22.670  50.942 175.8230  0.00  0.00     0.000 OA
ATOM     50   O  IDS F 504     -20.961  52.243 174.9330  0.00  0.00     0.000 O
ATOM     51   S  IDS F 504     -22.473  52.197 175.1940  0.00  0.00     0.000 S
ATOM     52   O  IDS F 504     -18.247  52.444 177.4210  0.00  0.00     0.000 O
ATOM     54  HD  IDS F 504     -19.025  52.210 177.1210  0.00  0.00     0.000 HD
ATOM     54   C  IDS F 504     -16.213  52.573 173.6680  0.00  0.00     0.000 C
ATOM     55   O  IDS F 504     -16.410  52.535 172.4560  0.00  0.00     0.000 OA
ATOM     56   O  IDS F 504     -15.090  52.921 174.0560  0.00  0.00     0.000 OA
BRANCH 41 57
ATOM     57  O4  SGN F 503     -18.470  49.878 175.9230  0.00  0.00     0.000 O
BRANCH 57 61
ATOM     58  C1  SGN F 503     -19.434  46.555 173.7380  0.00  0.00     0.000 C
ATOM     59  C2  SGN F 503     -20.116  46.687 175.1080  0.00  0.00     0.000 C
ATOM     60  C3  SGN F 503     -20.014  48.104 175.6450  0.00  0.00     0.000 C
ATOM     61  C4  SGN F 503     -18.545  48.523 175.6240  0.00  0.00     0.000 C
ATOM     62  C5  SGN F 503     -17.948  48.293 174.2230  0.00  0.00     0.000 C
ATOM     63  O5  SGN F 503     -18.097  46.962 173.8310  0.00  0.00     0.000 O
ATOM     64   N  SGN F 503     -21.495  46.245 175.0400  0.00  0.00     0.000 N
ATOM     66  HD  SGN F 503     -20.673  46.056 174.8440  0.00  0.00     0.000 HD
ATOM     66   S  SGN F 503     -21.789  44.655 175.2520  0.00  0.00     0.000 S
ATOM     67   O  SGN F 503     -21.240  43.987 174.0870  0.00  0.00     0.000 OA
ATOM     68   O  SGN F 503     -21.132  44.230 176.4870  0.00  0.00     0.000 OA
ATOM     69   O  SGN F 503     -23.232  44.588 175.3010  0.00  0.00     0.000 OA
ATOM     70   O  SGN F 503     -20.462  48.141 176.9920  0.00  0.00     0.000 O
ATOM     72  HD  SGN F 503     -19.640  47.952 176.7960  0.00  0.00     0.000 HD
ATOM     72   C  SGN F 503     -16.467  48.555 174.1270  0.00  0.00     0.000 C
ATOM     73   O  SGN F 503     -15.827  47.687 175.0340  0.00  0.00     0.000 O
ATOM     74   S  SGN F 503     -14.395  47.103 174.8640  0.00  0.00     0.000 S
ATOM     75   O  SGN F 503     -13.589  48.072 174.1980  0.00  0.00     0.000 OA
ATOM     76   O  SGN F 503     -13.891  46.802 176.2040  0.00  0.00     0.000 OA
ATOM     77   O  SGN F 503     -14.590  45.976 174.0380  0.00  0.00     0.000 OA
BRANCH 58 78
ATOM     78  O4  IDS F 502     -20.129  47.290 172.7600  0.00  0.00     0.000 O
BRANCH 78 82
ATOM     79  C1  IDS F 502     -21.601  48.618 169.8930  0.00  0.00     0.000 C
ATOM     80  C2  IDS F 502     -22.412  47.793 170.8830  0.00  0.00     0.000 C
ATOM     81  C3  IDS F 502     -21.744  46.451 171.1910  0.00  0.00     0.000 C
ATOM     82  C4  IDS F 502     -20.249  46.646 171.5250  0.00  0.00     0.000 C
ATOM     83  C5  IDS F 502     -19.583  47.496 170.4410  0.00  0.00     0.000 C
ATOM     84  O5  IDS F 502     -20.259  48.727 170.2920  0.00  0.00     0.000 O
ATOM     85   O  IDS F 502     -21.739  48.034 168.6210  0.00  0.00     0.000 OA
ATOM     86   O  IDS F 502     -22.492  48.509 172.0830  0.00  0.00     0.000 O
ATOM     87   S  IDS F 502     -23.499  48.301 173.2610  0.00  0.00     0.000 S
ATOM     88   O  IDS F 502     -23.839  46.903 173.2920  0.00  0.00     0.000 OA
ATOM     89   O  IDS F 502     -22.807  48.720 174.4590  0.00  0.00     0.000 OA
ATOM     90   O  IDS F 502     -24.633  49.121 172.9270  0.00  0.00     0.000 OA
ATOM     91   O  IDS F 502     -21.855  45.631 170.0450  0.00  0.00     0.000 O
ATOM     93  HD  IDS F 502     -21.056  45.695 169.7180  0.00  0.00     0.000 HD
ATOM     93   O  IDS F 502     -17.654  48.816 170.8630  0.00  0.00     0.000 OA
ATOM     94   O  IDS F 502     -17.315  46.784 170.6250  0.00  0.00     0.000 OA
ATOM     95   C  IDS F 502     -18.097  47.716 170.6540  0.00  0.00     0.000 C
ENDBRANCH 78 82
ENDBRANCH 58 78
ENDBRANCH 57 61
ENDBRANCH 41 57
ENDBRANCH 40 44
ENDBRANCH 20 40
ENDBRANCH 19 23
ENDBRANCH 1 19
TORSDOF 8
ENDMDL
MODEL 16
REMARK VINA RESULT:       7.0      2.760      5.542
ROOT
ATOM      1  C1  IDS F 506     -18.775  57.194 168.9730  0.00  0.00     0.000 C
ATOM      2  C2  IDS F 506     -19.849  56.918 167.9090  0.00  0.00     0.000 C
ATOM      3  C3  IDS F 506     -19.717  57.823 166.6600  0.00  0.00     0.000 C
ATOM      4  C4  IDS F 506     -18.255  58.099 166.2370  0.00  0.00     0.000 C
ATOM      5  C5  IDS F 506     -17.369  58.286 167.4740  0.00  0.00     0.000 C
ATOM      6  O5  IDS F 506     -17.522  57.213 168.3430  0.00  0.00     0.000 O
ATOM      7   S  IDS F 506     -20.857  54.720 166.7020  0.00  0.00     0.000 S
ATOM      8   O  IDS F 506     -21.269  55.540 165.6040  0.00  0.00     0.000 OA
ATOM      9   O  IDS F 506     -20.235  53.513 166.2420  0.00  0.00     0.000 OA
ATOM     10   O  IDS F 506     -21.906  54.489 167.6670  0.00  0.00     0.000 OA
ATOM     11   O  IDS F 506     -19.759  55.579 167.4640  0.00  0.00     0.000 O
ATOM     12   O  IDS F 506     -20.352  59.070 166.9280  0.00  0.00     0.000 O
ATOM     14  HD  IDS F 506     -20.132  59.854 166.6320  0.00  0.00     0.000 HD
ATOM     14   O  IDS F 506     -17.812  56.985 165.5030  0.00  0.00     0.000 O
ATOM     16  HD  IDS F 506     -17.592  57.768 165.2060  0.00  0.00     0.000 HD
ATOM     16   O  IDS F 506     -15.052  57.981 167.9290  0.00  0.00     0.000 OA
ATOM     17   O  IDS F 506     -15.499  59.247 166.3250  0.00  0.00     0.000 OA
ATOM     18   C  IDS F 506     -15.893  58.518 167.2210  0.00  0.00     0.000 C
ENDROOT
BRANCH 1 19
ATOM     19  O4  SGN F 505     -18.776  56.157 169.8950  0.00  0.00     0.000 O
BRANCH 19 23
ATOM     20  C1  SGN F 505     -19.034  55.477 174.0010  0.00  0.00     0.000 C
ATOM     21  C2  SGN F 505     -20.362  55.681 173.2890  0.00  0.00     0.000 C
ATOM     22  C3  SGN F 505     -20.233  55.372 171.7900  0.00  0.00     0.000 C
ATOM     23  C4  SGN F 505     -19.108  56.317 171.2580  0.00  0.00     0.000 C
ATOM     24  C5  SGN F 505     -17.875  55.983 172.0300  0.00  0.00     0.000 C
ATOM     25  O5  SGN F 505     -18.057  56.265 173.3810  0.00  0.00     0.000 O
ATOM     26   N  SGN F 505     -21.414  54.924 174.0080  0.00  0.00     0.000 N
ATOM     28  HD  SGN F 505     -22.064  54.401 173.7770  0.00  0.00     0.000 HD
ATOM     28   S  SGN F 505     -22.101  55.642 175.3580  0.00  0.00     0.000 S
ATOM     29   O  SGN F 505     -21.021  56.103 176.2010  0.00  0.00     0.000 OA
ATOM     30   O  SGN F 505     -22.892  56.731 174.8310  0.00  0.00     0.000 OA
ATOM     31   O  SGN F 505     -22.916  54.660 175.9740  0.00  0.00     0.000 OA
ATOM     32   O  SGN F 505     -21.475  55.668 171.1630  0.00  0.00     0.000 O
ATOM     34  HD  SGN F 505     -22.125  55.145 170.9320  0.00  0.00     0.000 HD
ATOM     34   C  SGN F 505     -16.691  56.776 171.5880  0.00  0.00     0.000 C
ATOM     35   O  SGN F 505     -17.085  58.103 171.6880  0.00  0.00     0.000 O
ATOM     36   S  SGN F 505     -16.203  59.338 171.5330  0.00  0.00     0.000 S
ATOM     37   O  SGN F 505     -16.847  60.124 170.5110  0.00  0.00     0.000 OA
ATOM     38   O  SGN F 505     -16.202  59.944 172.8460  0.00  0.00     0.000 OA
ATOM     39   O  SGN F 505     -14.880  58.871 171.1360  0.00  0.00     0.000 OA
BRANCH 20 40
ATOM     40  O4  IDS F 504     -18.648  54.129 173.9990  0.00  0.00     0.000 O
BRANCH 40 44
ATOM     41  C1  IDS F 504     -18.095  50.788 174.8490  0.00  0.00     0.000 C
ATOM     42  C2  IDS F 504     -19.373  51.470 175.2660  0.00  0.00     0.000 C
ATOM     43  C3  IDS F 504     -19.121  52.857 175.9720  0.00  0.00     0.000 C
ATOM     44  C4  IDS F 504     -18.091  53.687 175.2290  0.00  0.00     0.000 C
ATOM     45  C5  IDS F 504     -16.855  52.829 174.9640  0.00  0.00     0.000 C
ATOM     46  O5  IDS F 504     -17.206  51.703 174.1910  0.00  0.00     0.000 O
ATOM     47   O  IDS F 504     -22.493  51.977 174.5670  0.00  0.00     0.000 OA
ATOM     48   O  IDS F 504     -21.858  51.061 172.4800  0.00  0.00     0.000 OA
ATOM     49   O  IDS F 504     -21.577  49.817 174.5240  0.00  0.00     0.000 OA
ATOM     50   O  IDS F 504     -20.197  51.641 174.1070  0.00  0.00     0.000 O
ATOM     51   S  IDS F 504     -21.614  51.088 173.8980  0.00  0.00     0.000 S
ATOM     52   O  IDS F 504     -18.614  52.640 177.2840  0.00  0.00     0.000 O
ATOM     54  HD  IDS F 504     -19.139  52.172 176.7790  0.00  0.00     0.000 HD
ATOM     54   C  IDS F 504     -15.671  53.569 174.3310  0.00  0.00     0.000 C
ATOM     55   O  IDS F 504     -15.457  53.511 173.1230  0.00  0.00     0.000 OA
ATOM     56   O  IDS F 504     -14.902  54.255 175.0180  0.00  0.00     0.000 OA
BRANCH 41 57
ATOM     57  O4  SGN F 503     -17.513  50.200 175.9760  0.00  0.00     0.000 O
BRANCH 57 61
ATOM     58  C1  SGN F 503     -16.324  46.838 173.9670  0.00  0.00     0.000 C
ATOM     59  C2  SGN F 503     -17.748  46.816 174.5450  0.00  0.00     0.000 C
ATOM     60  C3  SGN F 503     -18.224  48.213 174.9030  0.00  0.00     0.000 C
ATOM     61  C4  SGN F 503     -17.181  48.861 175.8110  0.00  0.00     0.000 C
ATOM     62  C5  SGN F 503     -15.786  48.774 175.1610  0.00  0.00     0.000 C
ATOM     63  O5  SGN F 503     -15.452  47.450 174.8760  0.00  0.00     0.000 O
ATOM     64   N  SGN F 503     -18.664  46.162 173.6300  0.00  0.00     0.000 N
ATOM     66  HD  SGN F 503     -17.899  46.113 174.0330  0.00  0.00     0.000 HD
ATOM     66   S  SGN F 503     -18.795  44.539 173.7270  0.00  0.00     0.000 S
ATOM     67   O  SGN F 503     -17.530  44.005 173.2590  0.00  0.00     0.000 OA
ATOM     68   O  SGN F 503     -19.058  44.184 175.1200  0.00  0.00     0.000 OA
ATOM     69   O  SGN F 503     -19.888  44.242 172.8290  0.00  0.00     0.000 OA
ATOM     70   O  SGN F 503     -19.445  48.133 175.6240  0.00  0.00     0.000 O
ATOM     72  HD  SGN F 503     -18.680  48.085 176.0270  0.00  0.00     0.000 HD
ATOM     72   C  SGN F 503     -14.662  49.272 176.0330  0.00  0.00     0.000 C
ATOM     73   O  SGN F 503     -14.660  48.488 177.2040  0.00  0.00     0.000 O
ATOM     74   S  SGN F 503     -13.404  48.145 178.0560  0.00  0.00     0.000 S
ATOM     75   O  SGN F 503     -12.506  49.251 178.0010  0.00  0.00     0.000 OA
ATOM     76   O  SGN F 503     -13.866  47.885 179.4180  0.00  0.00     0.000 OA
ATOM     77   O  SGN F 503     -12.848  47.029 177.3960  0.00  0.00     0.000 OA
BRANCH 58 78
ATOM     78  O4  IDS F 502     -16.303  47.485 172.7170  0.00  0.00     0.000 O
BRANCH 78 82
ATOM     79  C1  IDS F 502     -15.698  48.647 169.4870  0.00  0.00     0.000 C
ATOM     80  C2  IDS F 502     -16.870  47.722 169.7830  0.00  0.00     0.000 C
ATOM     81  C3  IDS F 502     -16.432  46.469 170.5440  0.00  0.00     0.000 C
ATOM     82  C4  IDS F 502     -15.534  46.841 171.7430  0.00  0.00     0.000 C
ATOM     83  C5  IDS F 502     -14.413  47.774 171.2810  0.00  0.00     0.000 C
ATOM     84  O5  IDS F 502     -14.950  48.916 170.6450  0.00  0.00     0.000 O
ATOM     85   O  IDS F 502     -14.925  48.061 168.4690  0.00  0.00     0.000 OA
ATOM     86   O  IDS F 502     -17.776  48.414 170.5970  0.00  0.00     0.000 O
ATOM     87   S  IDS F 502     -19.278  48.075 170.8660  0.00  0.00     0.000 S
ATOM     88   O  IDS F 502     -19.418  46.646 170.7730  0.00  0.00     0.000 OA
ATOM     89   O  IDS F 502     -19.569  48.565 172.1950  0.00  0.00     0.000 OA
ATOM     90   O  IDS F 502     -20.002  48.754 169.8250  0.00  0.00     0.000 OA
ATOM     91   O  IDS F 502     -15.696  45.650 169.6570  0.00  0.00     0.000 O
ATOM     93  HD  IDS F 502     -14.886  45.814 169.9140  0.00  0.00     0.000 HD
ATOM     93   O  IDS F 502     -13.353  49.315 172.7450  0.00  0.00     0.000 OA
ATOM     94   O  IDS F 502     -12.743  47.342 172.9270  0.00  0.00     0.000 OA
ATOM     95   C  IDS F 502     -13.446  48.171 172.3800  0.00  0.00     0.000 C
ENDBRANCH 78 82
ENDBRANCH 58 78
ENDBRANCH 57 61
ENDBRANCH 41 57
ENDBRANCH 40 44
ENDBRANCH 20 40
ENDBRANCH 19 23
ENDBRANCH 1 19
TORSDOF 8
ENDMDL
MODEL 17
REMARK VINA RESULT:       9.9      2.563      5.086
ROOT
ATOM      1  C1  IDS F 506     -20.161  56.608 169.4890  0.00  0.00     0.000 C
ATOM      2  C2  IDS F 506     -20.958  56.284 168.2150  0.00  0.00     0.000 C
ATOM      3  C3  IDS F 506     -20.927  57.426 167.1700  0.00  0.00     0.000 C
ATOM      4  C4  IDS F 506     -19.565  58.151 167.0730  0.00  0.00     0.000 C
ATOM      5  C5  IDS F 506     -18.944  58.307 168.4650  0.00  0.00     0.000 C
ATOM      6  O5  IDS F 506     -18.895  57.078 169.1110  0.00  0.00     0.000 O
ATOM      7   S  IDS F 506     -21.118  54.192 166.5130  0.00  0.00     0.000 S
ATOM      8   O  IDS F 506     -21.599  55.082 165.5000  0.00  0.00     0.000 OA
ATOM      9   O  IDS F 506     -20.118  53.306 165.9920  0.00  0.00     0.000 OA
ATOM     10   O  IDS F 506     -22.175  53.506 167.2190  0.00  0.00     0.000 OA
ATOM     11   O  IDS F 506     -20.426  55.134 167.5890  0.00  0.00     0.000 O
ATOM     12   O  IDS F 506     -21.925  58.385 167.5090  0.00  0.00     0.000 O
ATOM     14  HD  IDS F 506     -21.903  59.242 167.3850  0.00  0.00     0.000 HD
ATOM     14   O  IDS F 506     -18.725  57.362 166.2660  0.00  0.00     0.000 O
ATOM     16  HD  IDS F 506     -18.703  58.219 166.1420  0.00  0.00     0.000 HD
ATOM     16   O  IDS F 506     -16.720  58.527 169.2860  0.00  0.00     0.000 OA
ATOM     17   O  IDS F 506     -17.295  59.932 167.8470  0.00  0.00     0.000 OA
ATOM     18   C  IDS F 506     -17.577  58.960 168.5290  0.00  0.00     0.000 C
ENDROOT
BRANCH 1 19
ATOM     19  O4  SGN F 505     -19.986  55.443 170.2200  0.00  0.00     0.000 O
BRANCH 19 23
ATOM     20  C1  SGN F 505     -21.473  53.436 173.5600  0.00  0.00     0.000 C
ATOM     21  C2  SGN F 505     -22.330  53.343 172.3070  0.00  0.00     0.000 C
ATOM     22  C3  SGN F 505     -21.490  53.604 171.0490  0.00  0.00     0.000 C
ATOM     23  C4  SGN F 505     -20.858  55.019 171.2460  0.00  0.00     0.000 C
ATOM     24  C5  SGN F 505     -20.037  54.944 172.4900  0.00  0.00     0.000 C
ATOM     25  O5  SGN F 505     -20.846  54.688 173.5920  0.00  0.00     0.000 O
ATOM     26   N  SGN F 505     -23.069  52.058 172.3260  0.00  0.00     0.000 N
ATOM     28  HD  SGN F 505     -23.234  51.433 171.7500  0.00  0.00     0.000 HD
ATOM     28   S  SGN F 505     -24.484  51.990 173.2220  0.00  0.00     0.000 S
ATOM     29   O  SGN F 505     -24.194  52.526 174.5330  0.00  0.00     0.000 OA
ATOM     30   O  SGN F 505     -25.423  52.808 172.4870  0.00  0.00     0.000 OA
ATOM     31   O  SGN F 505     -24.889  50.632 173.2460  0.00  0.00     0.000 OA
ATOM     32   O  SGN F 505     -22.358  53.595 169.9210  0.00  0.00     0.000 O
ATOM     34  HD  SGN F 505     -22.523  52.970 169.3450  0.00  0.00     0.000 HD
ATOM     34   C  SGN F 505     -19.321  56.221 172.7790  0.00  0.00     0.000 C
ATOM     35   O  SGN F 505     -20.309  57.194 172.8070  0.00  0.00     0.000 O
ATOM     36   S  SGN F 505     -20.156  58.649 173.2380  0.00  0.00     0.000 S
ATOM     37   O  SGN F 505     -20.638  59.418 172.1180  0.00  0.00     0.000 OA
ATOM     38   O  SGN F 505     -20.965  58.755 174.4330  0.00  0.00     0.000 OA
ATOM     39   O  SGN F 505     -18.740  58.868 173.5050  0.00  0.00     0.000 OA
BRANCH 20 40
ATOM     40  O4  IDS F 504     -20.518  52.411 173.6110  0.00  0.00     0.000 O
BRANCH 40 44
ATOM     41  C1  IDS F 504     -18.690  49.505 174.2480  0.00  0.00     0.000 C
ATOM     42  C2  IDS F 504     -20.158  49.414 173.9170  0.00  0.00     0.000 C
ATOM     43  C3  IDS F 504     -21.040  50.391 174.7860  0.00  0.00     0.000 C
ATOM     44  C4  IDS F 504     -20.423  51.774 174.8780  0.00  0.00     0.000 C
ATOM     45  C5  IDS F 504     -18.957  51.642 175.2870  0.00  0.00     0.000 C
ATOM     46  O5  IDS F 504     -18.258  50.872 174.3350  0.00  0.00     0.000 O
ATOM     47   O  IDS F 504     -22.357  48.902 171.5970  0.00  0.00     0.000 OA
ATOM     48   O  IDS F 504     -20.485  49.206 170.1820  0.00  0.00     0.000 OA
ATOM     49   O  IDS F 504     -20.514  47.474 171.8560  0.00  0.00     0.000 OA
ATOM     50   O  IDS F 504     -20.329  49.693 172.5230  0.00  0.00     0.000 O
ATOM     51   S  IDS F 504     -20.951  48.765 171.4690  0.00  0.00     0.000 S
ATOM     52   O  IDS F 504     -21.138  49.890 176.1150  0.00  0.00     0.000 O
ATOM     54  HD  IDS F 504     -21.038  49.495 175.3510  0.00  0.00     0.000 HD
ATOM     54   C  IDS F 504     -18.231  52.966 175.5460  0.00  0.00     0.000 C
ATOM     55   O  IDS F 504     -17.513  53.476 174.6890  0.00  0.00     0.000 OA
ATOM     56   O  IDS F 504     -18.354  53.566 176.6220  0.00  0.00     0.000 OA
BRANCH 41 57
ATOM     57  O4  SGN F 503     -18.452  48.797 175.4300  0.00  0.00     0.000 O
BRANCH 57 61
ATOM     58  C1  SGN F 503     -16.045  45.784 174.0590  0.00  0.00     0.000 C
ATOM     59  C2  SGN F 503     -16.587  45.624 175.4890  0.00  0.00     0.000 C
ATOM     60  C3  SGN F 503     -17.757  46.556 175.7470  0.00  0.00     0.000 C
ATOM     61  C4  SGN F 503     -17.331  47.978 175.3860  0.00  0.00     0.000 C
ATOM     62  C5  SGN F 503     -16.750  48.010 173.9590  0.00  0.00     0.000 C
ATOM     63  O5  SGN F 503     -15.685  47.118 173.8350  0.00  0.00     0.000 O
ATOM     64   N  SGN F 503     -16.941  44.242 175.7520  0.00  0.00     0.000 N
ATOM     66  HD  SGN F 503     -16.336  44.779 175.4430  0.00  0.00     0.000 HD
ATOM     66   S  SGN F 503     -15.762  43.249 176.2820  0.00  0.00     0.000 S
ATOM     67   O  SGN F 503     -14.849  43.078 175.1680  0.00  0.00     0.000 OA
ATOM     68   O  SGN F 503     -15.114  43.881 177.4300  0.00  0.00     0.000 OA
ATOM     69   O  SGN F 503     -16.474  42.033 176.6060  0.00  0.00     0.000 OA
ATOM     70   O  SGN F 503     -18.091  46.535 177.1280  0.00  0.00     0.000 O
ATOM     72  HD  SGN F 503     -17.486  47.072 176.8190  0.00  0.00     0.000 HD
ATOM     72   C  SGN F 503     -16.182  49.344 173.5500  0.00  0.00     0.000 C
ATOM     73   O  SGN F 503     -15.152  49.658 174.4590  0.00  0.00     0.000 O
ATOM     74   S  SGN F 503     -13.889  50.507 174.1320  0.00  0.00     0.000 S
ATOM     75   O  SGN F 503     -14.248  51.499 173.1730  0.00  0.00     0.000 OA
ATOM     76   O  SGN F 503     -13.432  51.101 175.3870  0.00  0.00     0.000 OA
ATOM     77   O  SGN F 503     -12.999  49.573 173.5600  0.00  0.00     0.000 OA
BRANCH 58 78
ATOM     78  O4  IDS F 502     -16.989  45.340 173.1150  0.00  0.00     0.000 O
BRANCH 78 82
ATOM     79  C1  IDS F 502     -18.773  43.927 170.4740  0.00  0.00     0.000 C
ATOM     80  C2  IDS F 502     -18.727  43.256 171.8400  0.00  0.00     0.000 C
ATOM     81  C3  IDS F 502     -17.292  43.084 172.3440  0.00  0.00     0.000 C
ATOM     82  C4  IDS F 502     -16.499  44.401 172.2020  0.00  0.00     0.000 C
ATOM     83  C5  IDS F 502     -16.652  44.946 170.7800  0.00  0.00     0.000 C
ATOM     84  O5  IDS F 502     -18.017  45.111 170.4570  0.00  0.00     0.000 O
ATOM     85   O  IDS F 502     -18.339  42.996 169.5150  0.00  0.00     0.000 OA
ATOM     86   O  IDS F 502     -19.398  44.078 172.7530  0.00  0.00     0.000 O
ATOM     87   S  IDS F 502     -19.960  43.694 174.1600  0.00  0.00     0.000 S
ATOM     88   O  IDS F 502     -19.114  42.657 174.6900  0.00  0.00     0.000 OA
ATOM     89   O  IDS F 502     -19.908  44.899 174.9560  0.00  0.00     0.000 OA
ATOM     90   O  IDS F 502     -21.295  43.220 173.9080  0.00  0.00     0.000 OA
ATOM     91   O  IDS F 502     -16.667  42.086 171.5630  0.00  0.00     0.000 O
ATOM     93  HD  IDS F 502     -16.182  42.569 171.0340  0.00  0.00     0.000 HD
ATOM     93   O  IDS F 502     -16.443  47.257 170.2730  0.00  0.00     0.000 OA
ATOM     94   O  IDS F 502     -14.661  46.239 170.5650  0.00  0.00     0.000 OA
ATOM     95   C  IDS F 502     -15.876  46.224 170.5210  0.00  0.00     0.000 C
ENDBRANCH 78 82
ENDBRANCH 58 78
ENDBRANCH 57 61
ENDBRANCH 41 57
ENDBRANCH 40 44
ENDBRANCH 20 40
ENDBRANCH 19 23
ENDBRANCH 1 19
TORSDOF 8
ENDMDL
MODEL 18
REMARK VINA RESULT:      12.8      3.240      5.612
ROOT
ATOM      1  C1  IDS F 506     -18.633  53.987 173.4310  0.00  0.00     0.000 C
ATOM      2  C2  IDS F 506     -20.140  54.093 173.1460  0.00  0.00     0.000 C
ATOM      3  C3  IDS F 506     -20.629  55.553 172.9920  0.00  0.00     0.000 C
ATOM      4  C4  IDS F 506     -19.631  56.475 172.2540  0.00  0.00     0.000 C
ATOM      5  C5  IDS F 506     -18.193  56.139 172.6640  0.00  0.00     0.000 C
ATOM      6  O5  IDS F 506     -17.950  54.781 172.5000  0.00  0.00     0.000 O
ATOM      7   S  IDS F 506     -21.876  52.910 171.4470  0.00  0.00     0.000 S
ATOM      8   O  IDS F 506     -22.740  54.045 171.5750  0.00  0.00     0.000 OA
ATOM      9   O  IDS F 506     -21.748  52.509 170.0760  0.00  0.00     0.000 OA
ATOM     10   O  IDS F 506     -22.229  51.821 172.3290  0.00  0.00     0.000 OA
ATOM     11   O  IDS F 506     -20.456  53.419 171.9450  0.00  0.00     0.000 O
ATOM     12   O  IDS F 506     -20.871  56.096 174.2870  0.00  0.00     0.000 O
ATOM     14  HD  IDS F 506     -20.771  56.916 174.5470  0.00  0.00     0.000 HD
ATOM     14   O  IDS F 506     -19.793  56.252 170.8750  0.00  0.00     0.000 O
ATOM     16  HD  IDS F 506     -19.693  57.072 171.1350  0.00  0.00     0.000 HD
ATOM     16   O  IDS F 506     -16.063  56.374 171.6270  0.00  0.00     0.000 OA
ATOM     17   O  IDS F 506     -17.189  58.130 171.7880  0.00  0.00     0.000 OA
ATOM     18   C  IDS F 506     -17.092  56.930 171.9850  0.00  0.00     0.000 C
ENDROOT
BRANCH 1 19
ATOM     19  O4  SGN F 505     -18.232  52.671 173.2510  0.00  0.00     0.000 O
BRANCH 19 23
ATOM     20  C1  SGN F 505     -17.092  49.390 175.5580  0.00  0.00     0.000 C
ATOM     21  C2  SGN F 505     -18.555  49.421 175.1450  0.00  0.00     0.000 C
ATOM     22  C3  SGN F 505     -18.754  50.298 173.9010  0.00  0.00     0.000 C
ATOM     23  C4  SGN F 505     -18.203  51.709 174.2830  0.00  0.00     0.000 C
ATOM     24  C5  SGN F 505     -16.766  51.518 174.6370  0.00  0.00     0.000 C
ATOM     25  O5  SGN F 505     -16.645  50.703 175.7580  0.00  0.00     0.000 O
ATOM     26   N  SGN F 505     -19.051  48.028 175.0320  0.00  0.00     0.000 N
ATOM     28  HD  SGN F 505     -19.528  47.589 174.4580  0.00  0.00     0.000 HD
ATOM     28   S  SGN F 505     -19.531  47.259 176.4410  0.00  0.00     0.000 S
ATOM     29   O  SGN F 505     -18.475  47.434 177.4120  0.00  0.00     0.000 OA
ATOM     30   O  SGN F 505     -20.752  47.928 176.8270  0.00  0.00     0.000 OA
ATOM     31   O  SGN F 505     -19.768  45.902 176.1060  0.00  0.00     0.000 OA
ATOM     32   O  SGN F 505     -20.147  50.363 173.6180  0.00  0.00     0.000 O
ATOM     34  HD  SGN F 505     -20.624  49.924 173.0440  0.00  0.00     0.000 HD
ATOM     34   C  SGN F 505     -16.086  52.803 174.9740  0.00  0.00     0.000 C
ATOM     35   O  SGN F 505     -16.852  53.366 175.9850  0.00  0.00     0.000 O
ATOM     36   S  SGN F 505     -16.510  54.594 176.8220  0.00  0.00     0.000 S
ATOM     37   O  SGN F 505     -17.637  55.477 176.6570  0.00  0.00     0.000 OA
ATOM     38   O  SGN F 505     -16.343  54.077 178.1630  0.00  0.00     0.000 OA
ATOM     39   O  SGN F 505     -15.274  55.148 176.2840  0.00  0.00     0.000 OA
BRANCH 20 40
ATOM     40  O4  IDS F 504     -16.297  48.746 174.5990  0.00  0.00     0.000 O
BRANCH 40 44
ATOM     41  C1  IDS F 504     -13.973  46.641 173.0630  0.00  0.00     0.000 C
ATOM     42  C2  IDS F 504     -14.687  46.191 174.3130  0.00  0.00     0.000 C
ATOM     43  C3  IDS F 504     -14.628  47.264 175.4670  0.00  0.00     0.000 C
ATOM     44  C4  IDS F 504     -14.923  48.661 174.9520  0.00  0.00     0.000 C
ATOM     45  C5  IDS F 504     -14.052  48.936 173.7270  0.00  0.00     0.000 C
ATOM     46  O5  IDS F 504     -14.324  47.989 172.7190  0.00  0.00     0.000 O
ATOM     47   O  IDS F 504     -17.157  44.485 175.5240  0.00  0.00     0.000 OA
ATOM     48   O  IDS F 504     -17.893  44.535 173.2760  0.00  0.00     0.000 OA
ATOM     49   O  IDS F 504     -15.760  43.585 173.8680  0.00  0.00     0.000 OA
ATOM     50   O  IDS F 504     -16.046  45.890 173.9790  0.00  0.00     0.000 O
ATOM     51   S  IDS F 504     -16.761  44.544 174.1630  0.00  0.00     0.000 S
ATOM     52   O  IDS F 504     -13.319  47.294 176.0250  0.00  0.00     0.000 O
ATOM     54  HD  IDS F 504     -13.777  46.662 175.6500  0.00  0.00     0.000 HD
ATOM     54   C  IDS F 504     -14.144  50.360 173.1690  0.00  0.00     0.000 C
ATOM     55   O  IDS F 504     -14.857  50.619 172.2020  0.00  0.00     0.000 OA
ATOM     56   O  IDS F 504     -13.513  51.293 173.6820  0.00  0.00     0.000 OA
BRANCH 41 57
ATOM     57  O4  SGN F 503     -12.597  46.482 173.2510  0.00  0.00     0.000 O
BRANCH 57 61
ATOM     58  C1  SGN F 503      -9.261  47.852 171.3160  0.00  0.00     0.000 C
ATOM     59  C2  SGN F 503      -9.695  48.640 172.5620  0.00  0.00     0.000 C
ATOM     60  C3  SGN F 503     -10.665  47.841 173.4150  0.00  0.00     0.000 C
ATOM     61  C4  SGN F 503     -11.817  47.374 172.5260  0.00  0.00     0.000 C
ATOM     62  C5  SGN F 503     -11.267  46.652 171.2810  0.00  0.00     0.000 C
ATOM     63  O5  SGN F 503     -10.389  47.475 170.5760  0.00  0.00     0.000 O
ATOM     64   N  SGN F 503      -8.540  49.063 173.3300  0.00  0.00     0.000 N
ATOM     66  HD  SGN F 503      -8.900  49.023 172.5430  0.00  0.00     0.000 HD
ATOM     66   S  SGN F 503      -7.831  50.471 172.9110  0.00  0.00     0.000 S
ATOM     67   O  SGN F 503      -7.217  50.241 171.6170  0.00  0.00     0.000 OA
ATOM     68   O  SGN F 503      -8.864  51.503 172.8520  0.00  0.00     0.000 OA
ATOM     69   O  SGN F 503      -6.856  50.674 173.9580  0.00  0.00     0.000 OA
ATOM     70   O  SGN F 503     -11.204  48.671 174.4330  0.00  0.00     0.000 O
ATOM     72  HD  SGN F 503     -11.565  48.631 173.6470  0.00  0.00     0.000 HD
ATOM     72   C  SGN F 503     -12.317  46.262 170.2740  0.00  0.00     0.000 C
ATOM     73   O  SGN F 503     -12.959  47.445 169.8570  0.00  0.00     0.000 O
ATOM     74   S  SGN F 503     -13.591  47.682 168.4550  0.00  0.00     0.000 S
ATOM     75   O  SGN F 503     -14.118  46.444 167.9830  0.00  0.00     0.000 OA
ATOM     76   O  SGN F 503     -14.634  48.692 168.6180  0.00  0.00     0.000 OA
ATOM     77   O  SGN F 503     -12.496  48.083 167.6600  0.00  0.00     0.000 OA
BRANCH 58 78
ATOM     78  O4  IDS F 502      -8.485  46.735 171.6760  0.00  0.00     0.000 O
BRANCH 78 82
ATOM     79  C1  IDS F 502      -6.203  44.115 171.9640  0.00  0.00     0.000 C
ATOM     80  C2  IDS F 502      -6.068  45.372 172.8120  0.00  0.00     0.000 C
ATOM     81  C3  IDS F 502      -6.101  46.643 171.9600  0.00  0.00     0.000 C
ATOM     82  C4  IDS F 502      -7.285  46.610 170.9690  0.00  0.00     0.000 C
ATOM     83  C5  IDS F 502      -7.281  45.285 170.2030  0.00  0.00     0.000 C
ATOM     84  O5  IDS F 502      -7.308  44.194 171.1000  0.00  0.00     0.000 O
ATOM     85   O  IDS F 502      -4.993  43.920 171.2760  0.00  0.00     0.000 OA
ATOM     86   O  IDS F 502      -7.158  45.425 173.6890  0.00  0.00     0.000 O
ATOM     87   S  IDS F 502      -7.300  46.274 174.9950  0.00  0.00     0.000 S
ATOM     88   O  IDS F 502      -6.530  47.475 174.8100  0.00  0.00     0.000 OA
ATOM     89   O  IDS F 502      -8.712  46.549 175.1430  0.00  0.00     0.000 OA
ATOM     90   O  IDS F 502      -6.757  45.443 176.0360  0.00  0.00     0.000 OA
ATOM     91   O  IDS F 502      -4.893  46.714 171.2280  0.00  0.00     0.000 O
ATOM     93  HD  IDS F 502      -5.158  46.454 170.4460  0.00  0.00     0.000 HD
ATOM     93   O  IDS F 502      -9.258  44.340 169.2840  0.00  0.00     0.000 OA
ATOM     94   O  IDS F 502      -8.427  45.904 168.2060  0.00  0.00     0.000 OA
ATOM     95   C  IDS F 502      -8.387  45.165 169.1710  0.00  0.00     0.000 C
ENDBRANCH 78 82
ENDBRANCH 58 78
ENDBRANCH 57 61
ENDBRANCH 41 57
ENDBRANCH 40 44
ENDBRANCH 20 40
ENDBRANCH 19 23
ENDBRANCH 1 19
TORSDOF 8
ENDMDL
MODEL 19
REMARK VINA RESULT:      13.4      3.966      6.990
ROOT
ATOM      1  C1  IDS F 506     -18.620  52.605 173.1050  0.00  0.00     0.000 C
ATOM      2  C2  IDS F 506     -19.993  51.949 172.8830  0.00  0.00     0.000 C
ATOM      3  C3  IDS F 506     -21.132  52.976 172.6710  0.00  0.00     0.000 C
ATOM      4  C4  IDS F 506     -20.716  54.211 171.8390  0.00  0.00     0.000 C
ATOM      5  C5  IDS F 506     -19.290  54.642 172.2020  0.00  0.00     0.000 C
ATOM      6  O5  IDS F 506     -18.421  53.564 172.1010  0.00  0.00     0.000 O
ATOM      7   S  IDS F 506     -20.958  49.959 171.3300  0.00  0.00     0.000 S
ATOM      8   O  IDS F 506     -22.262  50.540 171.4350  0.00  0.00     0.000 OA
ATOM      9   O  IDS F 506     -20.668  49.576 169.9790  0.00  0.00     0.000 OA
ATOM     10   O  IDS F 506     -20.726  48.900 172.2850  0.00  0.00     0.000 OA
ATOM     11   O  IDS F 506     -19.957  51.125 171.7350  0.00  0.00     0.000 O
ATOM     12   O  IDS F 506     -21.590  53.423 173.9440  0.00  0.00     0.000 O
ATOM     14  HD  IDS F 506     -21.897  54.205 174.1550  0.00  0.00     0.000 HD
ATOM     14   O  IDS F 506     -20.767  53.843 170.4830  0.00  0.00     0.000 O
ATOM     16  HD  IDS F 506     -21.075  54.624 170.6930  0.00  0.00     0.000 HD
ATOM     16   O  IDS F 506     -17.556  55.806 171.0590  0.00  0.00     0.000 OA
ATOM     17   O  IDS F 506     -19.391  56.804 171.1750  0.00  0.00     0.000 OA
ATOM     18   C  IDS F 506     -18.721  55.817 171.4320  0.00  0.00     0.000 C
ENDROOT
BRANCH 1 19
ATOM     19  O4  SGN F 505     -17.633  51.638 172.9790  0.00  0.00     0.000 O
BRANCH 19 23
ATOM     20  C1  SGN F 505     -15.086  49.253 175.2620  0.00  0.00     0.000 C
ATOM     21  C2  SGN F 505     -16.537  48.800 175.2150  0.00  0.00     0.000 C
ATOM     22  C3  SGN F 505     -17.246  49.360 173.9730  0.00  0.00     0.000 C
ATOM     23  C4  SGN F 505     -17.098  50.913 174.0650  0.00  0.00     0.000 C
ATOM     24  C5  SGN F 505     -15.634  51.198 174.0780  0.00  0.00     0.000 C
ATOM     25  O5  SGN F 505     -15.043  50.652 175.2140  0.00  0.00     0.000 O
ATOM     26   N  SGN F 505     -16.584  47.326 175.3660  0.00  0.00     0.000 N
ATOM     28  HD  SGN F 505     -17.005  46.679 174.9730  0.00  0.00     0.000 HD
ATOM     28   S  SGN F 505     -16.507  46.703 176.9200  0.00  0.00     0.000 S
ATOM     29   O  SGN F 505     -15.387  47.331 177.5840  0.00  0.00     0.000 OA
ATOM     30   O  SGN F 505     -17.773  47.057 177.5210  0.00  0.00     0.000 OA
ATOM     31   O  SGN F 505     -16.370  45.298 176.7920  0.00  0.00     0.000 OA
ATOM     32   O  SGN F 505     -18.616  48.982 174.0310  0.00  0.00     0.000 O
ATOM     34  HD  SGN F 505     -19.036  48.335 173.6370  0.00  0.00     0.000 HD
ATOM     34   C  SGN F 505     -15.337  52.660 174.1090  0.00  0.00     0.000 C
ATOM     35   O  SGN F 505     -16.022  53.148 175.2120  0.00  0.00     0.000 O
ATOM     36   S  SGN F 505     -15.922  54.545 175.8130  0.00  0.00     0.000 S
ATOM     37   O  SGN F 505     -17.277  55.034 175.8370  0.00  0.00     0.000 OA
ATOM     38   O  SGN F 505     -15.337  54.333 177.1190  0.00  0.00     0.000 OA
ATOM     39   O  SGN F 505     -15.056  55.326 174.9380  0.00  0.00     0.000 OA
BRANCH 20 40
ATOM     40  O4  IDS F 504     -14.339  48.705 174.2090  0.00  0.00     0.000 O
BRANCH 40 44
ATOM     41  C1  IDS F 504     -11.575  47.549 172.4160  0.00  0.00     0.000 C
ATOM     42  C2  IDS F 504     -12.932  46.928 172.1940  0.00  0.00     0.000 C
ATOM     43  C3  IDS F 504     -13.640  46.515 173.5400  0.00  0.00     0.000 C
ATOM     44  C4  IDS F 504     -13.528  47.602 174.5920  0.00  0.00     0.000 C
ATOM     45  C5  IDS F 504     -12.068  48.042 174.7030  0.00  0.00     0.000 C
ATOM     46  O5  IDS F 504     -11.617  48.533 173.4600  0.00  0.00     0.000 O
ATOM     47   O  IDS F 504     -15.594  46.892 170.3520  0.00  0.00     0.000 OA
ATOM     48   O  IDS F 504     -14.685  48.917 169.5330  0.00  0.00     0.000 OA
ATOM     49   O  IDS F 504     -13.454  46.851 169.3900  0.00  0.00     0.000 OA
ATOM     50   O  IDS F 504     -13.743  47.857 171.4660  0.00  0.00     0.000 O
ATOM     51   S  IDS F 504     -14.406  47.625 170.1000  0.00  0.00     0.000 S
ATOM     52   O  IDS F 504     -13.012  45.354 174.0720  0.00  0.00     0.000 O
ATOM     54  HD  IDS F 504     -13.114  45.639 173.2610  0.00  0.00     0.000 HD
ATOM     54   C  IDS F 504     -11.774  49.049 175.8190  0.00  0.00     0.000 C
ATOM     55   O  IDS F 504     -11.684  50.252 175.5830  0.00  0.00     0.000 OA
ATOM     56   O  IDS F 504     -11.630  48.683 176.9930  0.00  0.00     0.000 OA
BRANCH 41 57
ATOM     57  O4  SGN F 503     -10.655  46.530 172.6810  0.00  0.00     0.000 O
BRANCH 57 61
ATOM     58  C1  SGN F 503      -6.867  47.534 171.5020  0.00  0.00     0.000 C
ATOM     59  C2  SGN F 503      -8.012  48.037 170.6090  0.00  0.00     0.000 C
ATOM     60  C3  SGN F 503      -9.348  47.966 171.3260  0.00  0.00     0.000 C
ATOM     61  C4  SGN F 503      -9.536  46.547 171.8580  0.00  0.00     0.000 C
ATOM     62  C5  SGN F 503      -8.307  46.125 172.6870  0.00  0.00     0.000 C
ATOM     63  O5  SGN F 503      -7.138  46.230 171.9320  0.00  0.00     0.000 O
ATOM     64   N  SGN F 503      -7.738  49.379 170.1290  0.00  0.00     0.000 N
ATOM     66  HD  SGN F 503      -7.424  48.578 170.2330  0.00  0.00     0.000 HD
ATOM     66   S  SGN F 503      -6.854  49.527 168.7670  0.00  0.00     0.000 S
ATOM     67   O  SGN F 503      -5.513  49.091 169.1090  0.00  0.00     0.000 OA
ATOM     68   O  SGN F 503      -7.458  48.684 167.7370  0.00  0.00     0.000 OA
ATOM     69   O  SGN F 503      -6.921  50.942 168.4820  0.00  0.00     0.000 OA
ATOM     70   O  SGN F 503     -10.400  48.234 170.4090  0.00  0.00     0.000 O
ATOM     72  HD  SGN F 503     -10.086  47.434 170.5130  0.00  0.00     0.000 HD
ATOM     72   C  SGN F 503      -8.333  44.693 173.1530  0.00  0.00     0.000 C
ATOM     73   O  SGN F 503      -8.399  43.878 172.0050  0.00  0.00     0.000 O
ATOM     74   S  SGN F 503      -7.811  42.443 171.8840  0.00  0.00     0.000 S
ATOM     75   O  SGN F 503      -7.917  41.803 173.1530  0.00  0.00     0.000 OA
ATOM     76   O  SGN F 503      -8.583  41.747 170.8560  0.00  0.00     0.000 OA
ATOM     77   O  SGN F 503      -6.457  42.665 171.5580  0.00  0.00     0.000 OA
BRANCH 58 78
ATOM     78  O4  IDS F 502      -6.663  48.404 172.5890  0.00  0.00     0.000 O
BRANCH 78 82
ATOM     79  C1  IDS F 502      -5.466  50.398 175.1860  0.00  0.00     0.000 C
ATOM     80  C2  IDS F 502      -5.904  51.010 173.8630  0.00  0.00     0.000 C
ATOM     81  C3  IDS F 502      -5.231  50.331 172.6680  0.00  0.00     0.000 C
ATOM     82  C4  IDS F 502      -5.334  48.795 172.7790  0.00  0.00     0.000 C
ATOM     83  C5  IDS F 502      -4.863  48.343 174.1620  0.00  0.00     0.000 C
ATOM     84  O5  IDS F 502      -5.598  48.999 175.1740  0.00  0.00     0.000 O
ATOM     85   O  IDS F 502      -4.147  50.813 175.4430  0.00  0.00     0.000 OA
ATOM     86   O  IDS F 502      -7.285  50.819 173.7310  0.00  0.00     0.000 O
ATOM     87   S  IDS F 502      -8.272  51.566 172.7760  0.00  0.00     0.000 S
ATOM     88   O  IDS F 502      -7.532  51.932 171.5980  0.00  0.00     0.000 OA
ATOM     89   O  IDS F 502      -9.334  50.630 172.4830  0.00  0.00     0.000 OA
ATOM     90   O  IDS F 502      -8.703  52.721 173.5190  0.00  0.00     0.000 OA
ATOM     91   O  IDS F 502      -3.866  50.700 172.6630  0.00  0.00     0.000 O
ATOM     93  HD  IDS F 502      -3.501  49.985 172.9860  0.00  0.00     0.000 HD
ATOM     93   O  IDS F 502      -5.621  46.331 175.1720  0.00  0.00     0.000 OA
ATOM     94   O  IDS F 502      -4.170  46.107 173.7080  0.00  0.00     0.000 OA
ATOM     95   C  IDS F 502      -4.887  46.840 174.3640  0.00  0.00     0.000 C
ENDBRANCH 78 82
ENDBRANCH 58 78
ENDBRANCH 57 61
ENDBRANCH 41 57
ENDBRANCH 40 44
ENDBRANCH 20 40
ENDBRANCH 19 23
ENDBRANCH 1 19
TORSDOF 8
ENDMDL
