ROOT
ATOM      1  C1  UAP A 301       8.230  -1.815   53.340  0.00  0.00     0.000 C
ATOM      2  C2  UAP A 301       7.980  -2.915   54.330  0.00  0.00     0.000 C
ATOM      3  C3  UAP A 301       7.390  -4.151   53.650  0.00  0.00     0.000 C
ATOM      4  C4  UAP A 301       8.030  -4.426   52.400  0.00  0.00     0.000 C
ATOM      5  C5  UAP A 301       8.850  -3.551   51.830  0.00  0.00     0.000 C
ATOM      6  O5  UAP A 301       9.110  -2.319   52.330  0.00  0.00     0.000 O
ATOM      7   O  UAP A 301       9.260  -3.255   54.790  0.00  0.00     0.000 O
ATOM      8   S  UAP A 301       9.390  -3.615   56.490  0.00  0.00     0.000 S
ATOM      9   O  UAP A 301       9.060  -2.438   57.210  0.00  0.00     0.000 OA
ATOM     10   O  UAP A 301      10.760  -4.020   56.740  0.00  0.00     0.000 OA
ATOM     11   O  UAP A 301       8.430  -4.626   56.830  0.00  0.00     0.000 OA
ATOM     12   O  UAP A 301       6.010  -4.043   53.410  0.00  0.00     0.000 O
ATOM     14  HD  UAP A 301       6.510  -3.543   53.910  0.00  0.00     0.000 HD
ATOM     14   O  UAP A 301       9.250  -5.132   50.380  0.00  0.00     0.000 OA
ATOM     15   O  UAP A 301      10.350  -3.267   50.230  0.00  0.00     0.000 OA
ATOM     16   C  UAP A 301       9.490  -3.984   50.760  0.00  0.00     0.000 C
ENDROOT
BRANCH 1 17
ATOM     17  O4  SGN A 302       6.950  -1.492   52.850  0.00  0.00     0.000 O
BRANCH 17 21
ATOM     18  C1  SGN A 302       5.140   1.714   51.110  0.00  0.00     0.000 C
ATOM     19  C2  SGN A 302       5.750   0.671   50.200  0.00  0.00     0.000 C
ATOM     20  C3  SGN A 302       5.990  -0.602   50.940  0.00  0.00     0.000 C
ATOM     21  C4  SGN A 302       6.810  -0.270   52.160  0.00  0.00     0.000 C
ATOM     22  C5  SGN A 302       6.050   0.715   53.040  0.00  0.00     0.000 C
ATOM     23  O5  SGN A 302       5.910   1.873   52.280  0.00  0.00     0.000 O
ATOM     24   N  SGN A 302       4.760   0.405   49.200  0.00  0.00     0.000 N
ATOM     26  HD  SGN A 302       5.260   0.905   49.700  0.00  0.00     0.000 HD
ATOM     26   S  SGN A 302       5.030   1.274   47.700  0.00  0.00     0.000 S
ATOM     27   O  SGN A 302       4.210   0.664   46.660  0.00  0.00     0.000 OA
ATOM     28   O  SGN A 302       6.390   1.112   47.320  0.00  0.00     0.000 OA
ATOM     29   O  SGN A 302       4.690   2.649   47.990  0.00  0.00     0.000 OA
ATOM     30   O  SGN A 302       6.740  -1.505   50.160  0.00  0.00     0.000 O
ATOM     32  HD  SGN A 302       7.240  -1.005   50.660  0.00  0.00     0.000 HD
ATOM     32   S  SGN A 302       9.190   2.571   54.640  0.00  0.00     0.000 S
ATOM     33   O  SGN A 302      10.040   3.389   53.840  0.00  0.00     0.000 OA
ATOM     34   O  SGN A 302       9.990   1.632   55.370  0.00  0.00     0.000 OA
ATOM     35   O  SGN A 302       8.390   3.407   55.490  0.00  0.00     0.000 OA
ATOM     36   C  SGN A 302       6.890   1.132   54.220  0.00  0.00     0.000 C
ATOM     37   O  SGN A 302       8.070   1.677   53.630  0.00  0.00     0.000 O
BRANCH 18 38
ATOM     38  O4  SGN A 302       3.800   1.453   51.420  0.00  0.00     0.000 O
BRANCH 38 42
ATOM     39  C1  IDS A 303       0.490   1.203   51.860  0.00  0.00     0.000 C
ATOM     40  C2  IDS A 303       1.120   1.351   50.470  0.00  0.00     0.000 C
ATOM     41  C3  IDS A 303       1.990   2.592   50.290  0.00  0.00     0.000 C
ATOM     42  C4  IDS A 303       2.990   2.636   51.440  0.00  0.00     0.000 C
ATOM     43  C5  IDS A 303       2.220   2.630   52.740  0.00  0.00     0.000 C
ATOM     44  O5  IDS A 303       1.510   1.384   52.850  0.00  0.00     0.000 O
ATOM     45   O  IDS A 303       1.880   0.230   50.180  0.00  0.00     0.000 O
ATOM     46   S  IDS A 303       1.110  -0.885   49.130  0.00  0.00     0.000 S
ATOM     47   O  IDS A 303       1.990  -2.013   48.990  0.00  0.00     0.000 OA
ATOM     48   O  IDS A 303       0.870  -0.265   47.840  0.00  0.00     0.000 OA
ATOM     49   O  IDS A 303      -0.150  -1.220   49.630  0.00  0.00     0.000 OA
ATOM     50   O  IDS A 303       1.240   3.768   50.240  0.00  0.00     0.000 O
ATOM     52  HD  IDS A 303       1.740   4.268   50.740  0.00  0.00     0.000 HD
ATOM     52   C  IDS A 303       3.220   2.720   53.870  0.00  0.00     0.000 C
ATOM     53   O  IDS A 303       4.030   3.670   53.840  0.00  0.00     0.000 OA
ATOM     54   O  IDS A 303       3.330   1.747   54.630  0.00  0.00     0.000 OA
BRANCH 39 55
ATOM     55  O4  SGN A 304      -0.690   1.991   52.060  0.00  0.00     0.000 O
BRANCH 55 59
ATOM     56  C1  SGN A 304      -4.030   1.900   54.700  0.00  0.00     0.000 C
ATOM     57  C2  SGN A 304      -2.970   2.992   54.910  0.00  0.00     0.000 C
ATOM     58  C3  SGN A 304      -2.080   3.126   53.680  0.00  0.00     0.000 C
ATOM     59  C4  SGN A 304      -1.470   1.780   53.270  0.00  0.00     0.000 C
ATOM     60  C5  SGN A 304      -2.670   0.849   53.010  0.00  0.00     0.000 C
ATOM     61  O5  SGN A 304      -3.430   0.686   54.230  0.00  0.00     0.000 O
ATOM     62   O  SGN A 304      -5.170   2.314   53.930  0.00  0.00     0.000 OA
ATOM     63   O  SGN A 304      -4.580   4.513   57.530  0.00  0.00     0.000 OA
ATOM     64   O  SGN A 304      -3.850   6.495   56.520  0.00  0.00     0.000 OA
ATOM     65   O  SGN A 304      -2.310   4.935   57.320  0.00  0.00     0.000 OA
ATOM     66   N  SGN A 304      -3.630   4.280   55.100  0.00  0.00     0.000 N
ATOM     68  HD  SGN A 304      -3.130   4.780   55.600  0.00  0.00     0.000 HD
ATOM     68   S  SGN A 304      -3.590   5.097   56.690  0.00  0.00     0.000 S
ATOM     69   O  SGN A 304      -1.050   4.018   53.980  0.00  0.00     0.000 O
ATOM     71  HD  SGN A 304      -0.550   4.518   54.480  0.00  0.00     0.000 HD
ATOM     71   S  SGN A 304      -0.760  -1.852   54.290  0.00  0.00     0.000 S
ATOM     72   O  SGN A 304      -0.230  -2.922   53.480  0.00  0.00     0.000 OA
ATOM     73   O  SGN A 304      -0.960  -2.294   55.640  0.00  0.00     0.000 OA
ATOM     74   O  SGN A 304       0.110  -0.705   54.290  0.00  0.00     0.000 OA
ATOM     75   C  SGN A 304      -2.300  -0.506   52.450  0.00  0.00     0.000 C
ATOM     76   O  SGN A 304      -2.310  -1.427   53.540  0.00  0.00     0.000 O
ENDBRANCH 55 59
ENDBRANCH 39 55
ENDBRANCH 38 42
ENDBRANCH 18 38
ENDBRANCH 17 21
ENDBRANCH 1 17
TORSDOF 6