ROOT
ATOM      1  C1  UAP A 301      10.120  -2.097   52.880  0.00  0.00     0.000 C
ATOM      2  C2  UAP A 301       9.740  -3.216   53.830  0.00  0.00     0.000 C
ATOM      3  C3  UAP A 301       8.980  -4.308   53.120  0.00  0.00     0.000 C
ATOM      4  C4  UAP A 301       9.520  -4.606   51.810  0.00  0.00     0.000 C
ATOM      5  C5  UAP A 301      10.490  -3.837   51.260  0.00  0.00     0.000 C
ATOM      6  O5  UAP A 301      10.900  -2.670   51.840  0.00  0.00     0.000 O
ATOM      7   O  UAP A 301      10.960  -3.774   54.250  0.00  0.00     0.000 O
ATOM      8   S  UAP A 301      11.380  -3.620   55.930  0.00  0.00     0.000 S
ATOM      9   O  UAP A 301      11.350  -2.232   56.230  0.00  0.00     0.000 OA
ATOM     10   O  UAP A 301      12.690  -4.110   56.140  0.00  0.00     0.000 OA
ATOM     11   O  UAP A 301      10.390  -4.350   56.680  0.00  0.00     0.000 OA
ATOM     12   O  UAP A 301       7.640  -3.987   53.110  0.00  0.00     0.000 O
ATOM     14  HD  UAP A 301       8.140  -3.487   53.610  0.00  0.00     0.000 HD
ATOM     14   C  UAP A 301      11.250  -4.330   50.240  0.00  0.00     0.000 C
ATOM     15   O  UAP A 301      11.010  -5.451   49.780  0.00  0.00     0.000 OA
ATOM     16   O  UAP A 301      12.290  -3.721   49.890  0.00  0.00     0.000 OA
ENDROOT
BRANCH 1 17
ATOM     17  O4  SGN A 302       8.920  -1.478   52.410  0.00  0.00     0.000 O
BRANCH 17 21
ATOM     18  C1  SGN A 302       7.490   1.847   50.380  0.00  0.00     0.000 C
ATOM     19  C2  SGN A 302       8.000   0.659   49.570  0.00  0.00     0.000 C
ATOM     20  C3  SGN A 302       8.170  -0.581   50.430  0.00  0.00     0.000 C
ATOM     21  C4  SGN A 302       9.060  -0.313   51.600  0.00  0.00     0.000 C
ATOM     22  C5  SGN A 302       8.450   0.874   52.340  0.00  0.00     0.000 C
ATOM     23  O5  SGN A 302       8.360   2.017   51.500  0.00  0.00     0.000 O
ATOM     24   S  SGN A 302       6.800   1.192   47.200  0.00  0.00     0.000 S
ATOM     25   O  SGN A 302       5.810   0.577   46.380  0.00  0.00     0.000 OA
ATOM     26   O  SGN A 302       8.050   1.187   46.570  0.00  0.00     0.000 OA
ATOM     27   O  SGN A 302       6.460   2.531   47.500  0.00  0.00     0.000 OA
ATOM     28   N  SGN A 302       6.940   0.298   48.680  0.00  0.00     0.000 N
ATOM     30  HD  SGN A 302       7.440   0.798   49.180  0.00  0.00     0.000 HD
ATOM     30   O  SGN A 302       8.740  -1.623   49.670  0.00  0.00     0.000 O
ATOM     32  HD  SGN A 302       9.240  -1.123   50.170  0.00  0.00     0.000 HD
ATOM     32   S  SGN A 302      11.760   2.013   53.890  0.00  0.00     0.000 S
ATOM     33   O  SGN A 302      12.940   2.098   53.100  0.00  0.00     0.000 OA
ATOM     34   O  SGN A 302      12.070   1.396   55.130  0.00  0.00     0.000 OA
ATOM     35   O  SGN A 302      11.130   3.281   54.140  0.00  0.00     0.000 OA
ATOM     36   C  SGN A 302       9.310   1.248   53.500  0.00  0.00     0.000 C
ATOM     37   O  SGN A 302      10.620   1.015   53.100  0.00  0.00     0.000 O
BRANCH 18 38
ATOM     38  O4  SGN A 302       6.150   1.579   50.780  0.00  0.00     0.000 O
BRANCH 38 42
ATOM     39  C1  IDS A 303       2.960   1.134   51.720  0.00  0.00     0.000 C
ATOM     40  C2  IDS A 303       3.320   1.294   50.240  0.00  0.00     0.000 C
ATOM     41  C3  IDS A 303       4.080   2.545   49.910  0.00  0.00     0.000 C
ATOM     42  C4  IDS A 303       5.260   2.694   50.890  0.00  0.00     0.000 C
ATOM     43  C5  IDS A 303       4.680   2.647   52.290  0.00  0.00     0.000 C
ATOM     44  O5  IDS A 303       4.110   1.353   52.540  0.00  0.00     0.000 O
ATOM     45   O  IDS A 303       4.020   0.204   49.840  0.00  0.00     0.000 O
ATOM     46   S  IDS A 303       3.030  -0.958   49.070  0.00  0.00     0.000 S
ATOM     47   O  IDS A 303       3.830  -2.099   48.850  0.00  0.00     0.000 OA
ATOM     48   O  IDS A 303       2.610  -0.345   47.870  0.00  0.00     0.000 OA
ATOM     49   O  IDS A 303       1.840  -1.263   49.770  0.00  0.00     0.000 OA
ATOM     50   O  IDS A 303       3.200   3.617   50.010  0.00  0.00     0.000 O
ATOM     52  HD  IDS A 303       3.700   4.117   50.510  0.00  0.00     0.000 HD
ATOM     52   O  IDS A 303       6.320   3.993   53.280  0.00  0.00     0.000 OA
ATOM     53   O  IDS A 303       5.610   2.272   54.360  0.00  0.00     0.000 OA
ATOM     54   C  IDS A 303       5.660   2.963   53.360  0.00  0.00     0.000 C
BRANCH 39 55
ATOM     55  O4  SGN A 304       1.870   1.969   52.080  0.00  0.00     0.000 O
BRANCH 55 59
ATOM     56  C1  SGN A 304      -0.660   1.762   55.330  0.00  0.00     0.000 C
ATOM     57  C2  SGN A 304       0.510   2.695   55.440  0.00  0.00     0.000 C
ATOM     58  C3  SGN A 304       1.030   3.031   54.070  0.00  0.00     0.000 C
ATOM     59  C4  SGN A 304       1.400   1.719   53.390  0.00  0.00     0.000 C
ATOM     60  C5  SGN A 304       0.170   0.843   53.300  0.00  0.00     0.000 C
ATOM     61  O5  SGN A 304      -0.260   0.593   54.630  0.00  0.00     0.000 O
ATOM     62   S  SGN A 304       0.230   4.103   57.780  0.00  0.00     0.000 S
ATOM     63   O  SGN A 304      -0.810   3.441   58.500  0.00  0.00     0.000 OA
ATOM     64   O  SGN A 304       0.200   5.512   58.020  0.00  0.00     0.000 OA
ATOM     65   O  SGN A 304       1.500   3.558   58.180  0.00  0.00     0.000 OA
ATOM     66   N  SGN A 304       0.040   3.913   56.030  0.00  0.00     0.000 N
ATOM     68  HD  SGN A 304       0.540   4.413   56.530  0.00  0.00     0.000 HD
ATOM     68   O  SGN A 304       2.150   3.874   54.220  0.00  0.00     0.000 O
ATOM     70  HD  SGN A 304       2.650   4.374   54.720  0.00  0.00     0.000 HD
ATOM     70   O  SGN A 304       0.190  -1.585   53.370  0.00  0.00     0.000 O
ATOM     71   S  SGN A 304       1.530  -2.291   54.300  0.00  0.00     0.000 S
ATOM     72   O  SGN A 304       2.550  -2.694   53.390  0.00  0.00     0.000 OA
ATOM     73   O  SGN A 304       1.050  -3.426   55.030  0.00  0.00     0.000 OA
ATOM     74   O  SGN A 304       2.050  -1.318   55.220  0.00  0.00     0.000 OA
ATOM     75   C  SGN A 304       0.420  -0.448   52.540  0.00  0.00     0.000 C
BRANCH 56 76
ATOM     76  O4  SGN A 304      -1.660   2.453   54.610  0.00  0.00     0.000 O
BRANCH 76 80
ATOM     77  C1  IDS A 305      -5.530   3.261   55.070  0.00  0.00     0.000 C
ATOM     78  C2  IDS A 305      -4.940   2.322   56.130  0.00  0.00     0.000 C
ATOM     79  C3  IDS A 305      -3.460   2.502   56.150  0.00  0.00     0.000 C
ATOM     80  C4  IDS A 305      -2.960   1.932   54.840  0.00  0.00     0.000 C
ATOM     81  C5  IDS A 305      -3.920   2.302   53.690  0.00  0.00     0.000 C
ATOM     82  O5  IDS A 305      -4.590   3.498   54.050  0.00  0.00     0.000 O
ATOM     83   O  IDS A 305      -5.390   2.682   57.410  0.00  0.00     0.000 O
ATOM     84   S  IDS A 305      -6.730   1.727   58.040  0.00  0.00     0.000 S
ATOM     85   O  IDS A 305      -6.560   1.531   59.460  0.00  0.00     0.000 OA
ATOM     86   O  IDS A 305      -6.650   0.463   57.370  0.00  0.00     0.000 OA
ATOM     87   O  IDS A 305      -8.000   2.373   57.760  0.00  0.00     0.000 OA
ATOM     88   O  IDS A 305      -2.940   1.756   57.200  0.00  0.00     0.000 O
ATOM     90  HD  IDS A 305      -2.440   2.256   57.700  0.00  0.00     0.000 HD
ATOM     90   C  IDS A 305      -3.140   2.597   52.420  0.00  0.00     0.000 C
ATOM     91   O  IDS A 305      -2.680   1.612   51.820  0.00  0.00     0.000 OA
ATOM     92   O  IDS A 305      -2.960   3.798   52.090  0.00  0.00     0.000 OA
BRANCH 77 93
ATOM     93  O4  SGN A 306      -6.630   2.636   54.430  0.00  0.00     0.000 O
BRANCH 93 97
ATOM     94  C1  SGN A 306     -10.050   4.130   52.600  0.00  0.00     0.000 C
ATOM     95  C2  SGN A 306      -8.920   3.686   51.680  0.00  0.00     0.000 C
ATOM     96  C3  SGN A 306      -7.900   2.817   52.410  0.00  0.00     0.000 C
ATOM     97  C4  SGN A 306      -7.410   3.540   53.660  0.00  0.00     0.000 C
ATOM     98  C5  SGN A 306      -8.590   3.981   54.510  0.00  0.00     0.000 C
ATOM     99  O5  SGN A 306      -9.490   4.790   53.730  0.00  0.00     0.000 O
ENDBRANCH 93 97
ENDBRANCH 77 93
ENDBRANCH 76 80
ENDBRANCH 56 76
ENDBRANCH 55 59
ENDBRANCH 39 55
ENDBRANCH 38 42
ENDBRANCH 18 38
ENDBRANCH 17 21
ENDBRANCH 1 17
TORSDOF 10