ROOT
ATOM      1  C1  GCD A 903      18.340 -15.623   31.780  0.00  0.00     0.000 C
ATOM      2  C2  GCD A 903      18.330 -17.010   32.500  0.00  0.00     0.000 C
ATOM      3  C3  GCD A 903      17.240 -17.846   31.710  0.00  0.00     0.000 C
ATOM      4  C4  GCD A 903      15.860 -17.287   31.470  0.00  0.00     0.000 C
ATOM      5  C5  GCD A 903      15.820 -15.956   31.460  0.00  0.00     0.000 C
ATOM      6  O5  GCD A 903      16.970 -15.008   31.670  0.00  0.00     0.000 O
ATOM      7   O  GCD A 903      19.650 -17.661   32.640  0.00  0.00     0.000 O
ATOM      9  HD  GCD A 903      20.150 -17.161   33.140  0.00  0.00     0.000 HD
ATOM      9   O  GCD A 903      17.210 -19.118   32.390  0.00  0.00     0.000 O
ATOM     11  HD  GCD A 903      17.710 -18.618   32.890  0.00  0.00     0.000 HD
ATOM     11   O  GCD A 903      14.740 -13.972   31.300  0.00  0.00     0.000 OA
ATOM     12   C  GCD A 903      14.490 -15.173   31.200  0.00  0.00     0.000 C
ATOM     13   O  GCD A 903      13.350 -15.871   31.040  0.00  0.00     0.000 OA
ENDROOT
BRANCH 1 14
ATOM     14  O3  NAG A 904      18.920 -14.603   32.660  0.00  0.00     0.000 O
BRANCH 14 17
ATOM     15  C1  NAG A 904      21.830 -12.232   32.790  0.00  0.00     0.000 C
ATOM     16  C2  NAG A 904      21.020 -13.457   33.140  0.00  0.00     0.000 C
ATOM     17  C3  NAG A 904      19.680 -13.437   32.290  0.00  0.00     0.000 C
ATOM     18  C4  NAG A 904      18.850 -12.154   32.620  0.00  0.00     0.000 C
ATOM     19  C5  NAG A 904      19.690 -10.933   32.270  0.00  0.00     0.000 C
ATOM     20  O5  NAG A 904      21.000 -10.984   33.050  0.00  0.00     0.000 O
ATOM     21   O  NAG A 904      23.080 -12.260   33.570  0.00  0.00     0.000 OA
ATOM     22   C  NAG A 904      22.480 -14.982   35.400  0.00  0.00     0.000 C
ATOM     23   N  NAG A 904      21.880 -14.719   32.900  0.00  0.00     0.000 N
ATOM     25  HD  NAG A 904      22.380 -14.219   33.400  0.00  0.00     0.000 HD
ATOM     25   O  NAG A 904      23.260 -16.509   33.690  0.00  0.00     0.000 OA
ATOM     26   C  NAG A 904      22.590 -15.485   33.950  0.00  0.00     0.000 C
ATOM     27   O  NAG A 904      17.600 -12.110   31.860  0.00  0.00     0.000 O
ATOM     29  HD  NAG A 904      18.100 -11.610   32.360  0.00  0.00     0.000 HD
ATOM     29   O  NAG A 904      18.480  -9.625   34.050  0.00  0.00     0.000 O
ATOM     31  HD  NAG A 904      18.980  -9.125   34.550  0.00  0.00     0.000 HD
ATOM     31   C  NAG A 904      18.920  -9.646   32.630  0.00  0.00     0.000 C
ENDBRANCH 14 17
ENDBRANCH 1 14
TORSDOF 2