ROOT
ATOM      1  C1  GCD A 901       4.930 -10.633   30.500  0.00  0.00     0.000 C
ATOM      2  C2  GCD A 901       3.660 -10.567   31.290  0.00  0.00     0.000 C
ATOM      3  C3  GCD A 901       2.530 -11.007   30.300  0.00  0.00     0.000 C
ATOM      4  C4  GCD A 901       2.620 -10.543   28.830  0.00  0.00     0.000 C
ATOM      5  C5  GCD A 901       3.670  -9.794   28.440  0.00  0.00     0.000 C
ATOM      6  O5  GCD A 901       4.830  -9.618   29.390  0.00  0.00     0.000 O
ATOM      7   O  GCD A 901       3.710 -11.450   32.460  0.00  0.00     0.000 O
ATOM      9  HD  GCD A 901       4.210 -10.950   32.960  0.00  0.00     0.000 HD
ATOM      9   O  GCD A 901       1.300 -10.923   31.000  0.00  0.00     0.000 O
ATOM     11  HD  GCD A 901       1.800 -10.423   31.500  0.00  0.00     0.000 HD
ATOM     11   C  GCD A 901       3.870  -9.280   27.040  0.00  0.00     0.000 C
ATOM     12   O  GCD A 901       3.250  -9.915   26.100  0.00  0.00     0.000 OA
ATOM     13   O  GCD A 901       4.410  -8.115   27.040  0.00  0.00     0.000 OA
ENDROOT
BRANCH 1 14
ATOM     14  O3  NAG A 902       6.060 -10.250   31.260  0.00  0.00     0.000 O
BRANCH 14 17
ATOM     15  C1  NAG A 902       9.630 -11.316   30.760  0.00  0.00     0.000 C
ATOM     16  C2  NAG A 902       8.240 -11.282   31.410  0.00  0.00     0.000 C
ATOM     17  C3  NAG A 902       7.380 -10.249   30.670  0.00  0.00     0.000 C
ATOM     18  C4  NAG A 902       8.030  -8.843   30.760  0.00  0.00     0.000 C
ATOM     19  C5  NAG A 902       9.420  -8.894   30.140  0.00  0.00     0.000 C
ATOM     20  O5  NAG A 902      10.240  -9.952   30.830  0.00  0.00     0.000 O
ATOM     21   O  NAG A 902      10.450 -12.282   31.420  0.00  0.00     0.000 OA
ATOM     22   O  NAG A 902       7.020 -12.552   33.680  0.00  0.00     0.000 OA
ATOM     23   C  NAG A 902       6.960 -13.136   32.560  0.00  0.00     0.000 C
ATOM     24   C  NAG A 902       6.230 -14.448   32.360  0.00  0.00     0.000 C
ATOM     25   N  NAG A 902       7.530 -12.626   31.350  0.00  0.00     0.000 N
ATOM     27  HD  NAG A 902       8.030 -12.126   31.850  0.00  0.00     0.000 HD
ATOM     27   O  NAG A 902       7.240  -7.839   30.080  0.00  0.00     0.000 O
ATOM     29  HD  NAG A 902       7.740  -7.339   30.580  0.00  0.00     0.000 HD
ATOM     29   O  NAG A 902      10.290  -7.058   31.600  0.00  0.00     0.000 O
ATOM     31  HD  NAG A 902      10.790  -6.558   32.100  0.00  0.00     0.000 HD
ATOM     31   C  NAG A 902      10.100  -7.527   30.240  0.00  0.00     0.000 C
ENDBRANCH 14 17
ENDBRANCH 1 14
TORSDOF 2