ROOT
ATOM      1  C1  GC4 A 516      26.630  22.832   -2.430  0.00  0.00     0.000 C
ATOM      2  C2  GC4 A 516      25.770  23.331   -3.600  0.00  0.00     0.000 C
ATOM      3  C3  GC4 A 516      25.720  24.877   -3.620  0.00  0.00     0.000 C
ATOM      4  C4  GC4 A 516      27.080  25.531   -3.270  0.00  0.00     0.000 C
ATOM      5  C5  GC4 A 516      28.240  24.668   -2.750  0.00  0.00     0.000 C
ATOM      6  O5  GC4 A 516      27.980  23.254   -2.620  0.00  0.00     0.000 O
ATOM      7   O  GC4 A 516      26.290  22.861   -4.830  0.00  0.00     0.000 O
ATOM      9  HD  GC4 A 516      26.790  23.361   -4.330  0.00  0.00     0.000 HD
ATOM      9   O  GC4 A 516      24.950  25.336   -2.500  0.00  0.00     0.000 O
ATOM     11  HD  GC4 A 516      25.450  25.836   -2.000  0.00  0.00     0.000 HD
ATOM     11   O  GC4 A 516      29.690  26.552   -2.460  0.00  0.00     0.000 OA
ATOM     12   O  GC4 A 516      30.400  24.599   -1.750  0.00  0.00     0.000 OA
ATOM     13   C  GC4 A 516      29.540  25.317   -2.310  0.00  0.00     0.000 C
ENDROOT
BRANCH 1 14
ATOM     14  O3  ASG A 514      26.190  23.109   -1.090  0.00  0.00     0.000 O
BRANCH 14 17
ATOM     15  C1  ASG A 514      26.440  20.817    1.870  0.00  0.00     0.000 C
ATOM     16  C2  ASG A 514      25.800  21.469    0.650  0.00  0.00     0.000 C
ATOM     17  C3  ASG A 514      26.820  22.370   -0.040  0.00  0.00     0.000 C
ATOM     18  C4  ASG A 514      27.460  23.348    0.960  0.00  0.00     0.000 C
ATOM     19  C5  ASG A 514      28.010  22.587    2.170  0.00  0.00     0.000 C
ATOM     20  O5  ASG A 514      26.950  21.812    2.770  0.00  0.00     0.000 O
ATOM     21   O  ASG A 514      25.490  20.067    2.550  0.00  0.00     0.000 OA
ATOM     22   C  ASG A 514      24.140  20.524   -0.860  0.00  0.00     0.000 C
ATOM     23   C  ASG A 514      23.740  19.445   -1.810  0.00  0.00     0.000 C
ATOM     24   O  ASG A 514      23.340  21.468   -0.680  0.00  0.00     0.000 OA
ATOM     25   N  ASG A 514      25.330  20.438   -0.260  0.00  0.00     0.000 N
ATOM     27  HD  ASG A 514      25.830  20.938    0.240  0.00  0.00     0.000 HD
ATOM     27   O  ASG A 514      26.490  24.310    1.370  0.00  0.00     0.000 O
ATOM     28   O  ASG A 514      25.420  26.033    0.190  0.00  0.00     0.000 OA
ATOM     29   O  ASG A 514      26.330  26.405    2.370  0.00  0.00     0.000 OA
ATOM     30   O  ASG A 514      27.700  26.171    0.510  0.00  0.00     0.000 OA
ATOM     31   S  ASG A 514      26.470  25.745    1.120  0.00  0.00     0.000 S
ATOM     32   O  ASG A 514      29.750  24.141    2.850  0.00  0.00     0.000 O
ATOM     34  HD  ASG A 514      30.250  24.641    3.350  0.00  0.00     0.000 HD
ATOM     34   C  ASG A 514      28.550  23.499    3.260  0.00  0.00     0.000 C
ENDBRANCH 14 17
ENDBRANCH 1 14
TORSDOF 2