ROOT
ATOM      1  C1  IDS A 211      18.800 107.825   16.190  0.00  0.00     0.000 C
ATOM      2  C2  IDS A 211      19.700 107.031   17.090  0.00  0.00     0.000 C
ATOM      3  C3  IDS A 211      18.960 105.783   17.450  0.00  0.00     0.000 C
ATOM      4  C4  IDS A 211      17.610 106.111   18.150  0.00  0.00     0.000 C
ATOM      5  C5  IDS A 211      17.200 107.672   18.140  0.00  0.00     0.000 C
ATOM      6  O5  IDS A 211      17.720 108.425   16.930  0.00  0.00     0.000 O
ATOM      7   O  IDS A 211      20.890 106.655   16.390  0.00  0.00     0.000 O
ATOM      8   S  IDS A 211      22.360 106.468   16.900  0.00  0.00     0.000 S
ATOM      9   O  IDS A 211      22.920 105.460   16.010  0.00  0.00     0.000 OA
ATOM     10   O  IDS A 211      23.040 107.746   16.780  0.00  0.00     0.000 OA
ATOM     11   O  IDS A 211      22.250 106.008   18.270  0.00  0.00     0.000 OA
ATOM     12   O  IDS A 211      19.740 105.001   18.310  0.00  0.00     0.000 O
ATOM     14  HD  IDS A 211      20.240 105.501   18.810  0.00  0.00     0.000 HD
ATOM     14   O  IDS A 211      14.880 107.011   17.890  0.00  0.00     0.000 OA
ATOM     15   O  IDS A 211      15.190 108.902   18.750  0.00  0.00     0.000 OA
ATOM     16   C  IDS A 211      15.670 107.882   18.260  0.00  0.00     0.000 C
ENDROOT
BRANCH 1 17
ATOM     17  O4  SGN A 210      19.570 108.751   15.460  0.00  0.00     0.000 O
BRANCH 17 21
ATOM     18  C1  SGN A 210      19.720 109.920   11.390  0.00  0.00     0.000 C
ATOM     19  C2  SGN A 210      18.350 110.002   12.190  0.00  0.00     0.000 C
ATOM     20  C3  SGN A 210      18.630 110.016   13.700  0.00  0.00     0.000 C
ATOM     21  C4  SGN A 210      19.350 108.744   14.050  0.00  0.00     0.000 C
ATOM     22  C5  SGN A 210      20.710 108.688   13.230  0.00  0.00     0.000 C
ATOM     23  O5  SGN A 210      20.430 108.746   11.790  0.00  0.00     0.000 O
ATOM     24   N  SGN A 210      17.620 111.211   11.810  0.00  0.00     0.000 N
ATOM     26  HD  SGN A 210      18.120 111.711   12.310  0.00  0.00     0.000 HD
ATOM     26   S  SGN A 210      16.150 111.094   11.080  0.00  0.00     0.000 S
ATOM     27   O  SGN A 210      16.350 111.323    9.660  0.00  0.00     0.000 OA
ATOM     28   O  SGN A 210      15.630 109.773   11.370  0.00  0.00     0.000 OA
ATOM     29   O  SGN A 210      15.370 112.140   11.700  0.00  0.00     0.000 OA
ATOM     30   O  SGN A 210      17.410 110.068   14.420  0.00  0.00     0.000 O
ATOM     32  HD  SGN A 210      17.910 110.568   14.920  0.00  0.00     0.000 HD
ATOM     32   C  SGN A 210      21.550 107.414   13.470  0.00  0.00     0.000 C
ATOM     33   O  SGN A 210      20.860 106.296   12.970  0.00  0.00     0.000 O
ATOM     34   S  SGN A 210      21.240 105.456   11.740  0.00  0.00     0.000 S
ATOM     35   O  SGN A 210      22.660 105.225   11.810  0.00  0.00     0.000 OA
ATOM     36   O  SGN A 210      20.460 104.253   11.880  0.00  0.00     0.000 OA
ATOM     37   O  SGN A 210      20.850 106.236   10.600  0.00  0.00     0.000 OA
BRANCH 18 38
ATOM     38  O4  IDS A 209      20.540 111.034   11.710  0.00  0.00     0.000 O
BRANCH 38 42
ATOM     39  C1  IDS A 209      21.310 114.658   12.270  0.00  0.00     0.000 C
ATOM     40  C2  IDS A 209      20.180 114.571   11.230  0.00  0.00     0.000 C
ATOM     41  C3  IDS A 209      19.640 113.156   11.110  0.00  0.00     0.000 C
ATOM     42  C4  IDS A 209      20.730 112.103   10.790  0.00  0.00     0.000 C
ATOM     43  C5  IDS A 209      22.160 112.699   11.100  0.00  0.00     0.000 C
ATOM     44  O5  IDS A 209      22.080 113.460   12.330  0.00  0.00     0.000 O
ATOM     45   O  IDS A 209      19.080 115.416   11.640  0.00  0.00     0.000 O
ATOM     46   S  IDS A 209      18.090 115.260   12.920  0.00  0.00     0.000 S
ATOM     47   O  IDS A 209      17.940 116.613   13.420  0.00  0.00     0.000 OA
ATOM     48   O  IDS A 209      16.840 114.714   12.450  0.00  0.00     0.000 OA
ATOM     49   O  IDS A 209      18.770 114.386   13.880  0.00  0.00     0.000 OA
ATOM     50   O  IDS A 209      18.630 113.119   10.100  0.00  0.00     0.000 O
ATOM     52  HD  IDS A 209      19.130 113.619   10.600  0.00  0.00     0.000 HD
ATOM     52   C  IDS A 209      23.260 111.630   11.240  0.00  0.00     0.000 C
ATOM     53   O  IDS A 209      23.570 110.919   10.300  0.00  0.00     0.000 OA
ATOM     54   O  IDS A 209      23.840 111.457   12.290  0.00  0.00     0.000 OA
BRANCH 39 55
ATOM     55  O4  SGN A 208      22.080 115.747   11.910  0.00  0.00     0.000 O
BRANCH 55 59
ATOM     56  C1  SGN A 208      25.170 118.083   13.470  0.00  0.00     0.000 C
ATOM     57  C2  SGN A 208      25.550 116.666   12.920  0.00  0.00     0.000 C
ATOM     58  C3  SGN A 208      24.410 116.199   12.000  0.00  0.00     0.000 C
ATOM     59  C4  SGN A 208      23.110 116.163   12.790  0.00  0.00     0.000 C
ATOM     60  C5  SGN A 208      22.820 117.609   13.330  0.00  0.00     0.000 C
ATOM     61  O5  SGN A 208      23.930 118.037   14.180  0.00  0.00     0.000 O
ATOM     62   S  SGN A 208      28.280 116.932   12.880  0.00  0.00     0.000 S
ATOM     63   O  SGN A 208      28.520 115.782   13.720  0.00  0.00     0.000 OA
ATOM     64   O  SGN A 208      29.240 117.066   11.790  0.00  0.00     0.000 OA
ATOM     65   O  SGN A 208      28.180 118.147   13.660  0.00  0.00     0.000 OA
ATOM     66   N  SGN A 208      26.820 116.736   12.140  0.00  0.00     0.000 N
ATOM     68  HD  SGN A 208      27.320 117.236   12.640  0.00  0.00     0.000 HD
ATOM     68   O  SGN A 208      24.710 114.899   11.510  0.00  0.00     0.000 O
ATOM     70  HD  SGN A 208      25.210 115.399   12.010  0.00  0.00     0.000 HD
ATOM     70   O  SGN A 208      21.850 117.680   15.520  0.00  0.00     0.000 O
ATOM     71   S  SGN A 208      21.530 116.534   16.510  0.00  0.00     0.000 S
ATOM     72   O  SGN A 208      21.550 115.296   15.750  0.00  0.00     0.000 OA
ATOM     73   O  SGN A 208      22.600 116.613   17.490  0.00  0.00     0.000 OA
ATOM     74   O  SGN A 208      20.230 116.841   17.070  0.00  0.00     0.000 OA
ATOM     75   C  SGN A 208      21.530 117.719   14.160  0.00  0.00     0.000 C
BRANCH 56 76
ATOM     76  O4  IDS A 207      24.980 118.908   12.390  0.00  0.00     0.000 O
BRANCH 76 80
ATOM     77  C1  IDS A 207      25.130 121.086    9.480  0.00  0.00     0.000 C
ATOM     78  C2  IDS A 207      26.580 120.847    9.960  0.00  0.00     0.000 C
ATOM     79  C3  IDS A 207      26.640 119.801   11.050  0.00  0.00     0.000 C
ATOM     80  C4  IDS A 207      25.690 120.080   12.250  0.00  0.00     0.000 C
ATOM     81  C5  IDS A 207      24.620 121.149   11.830  0.00  0.00     0.000 C
ATOM     82  O5  IDS A 207      24.180 120.814   10.500  0.00  0.00     0.000 O
ATOM     83   O  IDS A 207      27.410 120.378    8.880  0.00  0.00     0.000 O
ATOM     84   S  IDS A 207      27.310 118.959    8.110  0.00  0.00     0.000 S
ATOM     85   O  IDS A 207      27.870 117.991    9.030  0.00  0.00     0.000 OA
ATOM     86   O  IDS A 207      25.920 118.699    7.840  0.00  0.00     0.000 OA
ATOM     87   O  IDS A 207      28.100 119.103    6.900  0.00  0.00     0.000 OA
ATOM     88   O  IDS A 207      27.990 119.686   11.500  0.00  0.00     0.000 O
ATOM     90  HD  IDS A 207      28.490 120.186   12.000  0.00  0.00     0.000 HD
ATOM     90   O  IDS A 207      22.390 120.565   12.530  0.00  0.00     0.000 OA
ATOM     91   O  IDS A 207      23.420 121.885   13.790  0.00  0.00     0.000 OA
ATOM     92   C  IDS A 207      23.410 121.210   12.780  0.00  0.00     0.000 C
BRANCH 77 93
ATOM     93  O4  SGN A 206      25.090 122.418    9.130  0.00  0.00     0.000 O
BRANCH 93 97
ATOM     94  C1  SGN A 206      23.130 124.978    6.540  0.00  0.00     0.000 C
ATOM     95  C2  SGN A 206      22.460 124.825    7.960  0.00  0.00     0.000 C
ATOM     96  C3  SGN A 206      23.580 124.249    8.870  0.00  0.00     0.000 C
ATOM     97  C4  SGN A 206      24.040 122.890    8.310  0.00  0.00     0.000 C
ATOM     98  C5  SGN A 206      24.570 123.086    6.850  0.00  0.00     0.000 C
ATOM     99  O5  SGN A 206      23.500 123.684    6.020  0.00  0.00     0.000 O
ATOM    100   S  SGN A 206      20.450 126.616    8.600  0.00  0.00     0.000 S
ATOM    101   O  SGN A 206      19.640 125.655    7.880  0.00  0.00     0.000 OA
ATOM    102   O  SGN A 206      20.150 126.671   10.040  0.00  0.00     0.000 OA
ATOM    103   O  SGN A 206      20.410 127.931    7.980  0.00  0.00     0.000 OA
ATOM    104   N  SGN A 206      22.050 126.164    8.480  0.00  0.00     0.000 N
ATOM    106  HD  SGN A 206      22.550 126.664    8.980  0.00  0.00     0.000 HD
ATOM    106   O  SGN A 206      23.070 124.063   10.190  0.00  0.00     0.000 O
ATOM    108  HD  SGN A 206      23.570 124.563   10.690  0.00  0.00     0.000 HD
ATOM    108   O  SGN A 206      23.890 121.049    5.780  0.00  0.00     0.000 O
ATOM    109   S  SGN A 206      23.570 120.601    4.320  0.00  0.00     0.000 S
ATOM    110   O  SGN A 206      24.540 119.582    3.960  0.00  0.00     0.000 OA
ATOM    111   O  SGN A 206      22.230 120.087    4.390  0.00  0.00     0.000 OA
ATOM    112   O  SGN A 206      23.660 121.803    3.510  0.00  0.00     0.000 OA
ATOM    113   C  SGN A 206      25.010 121.773    6.190  0.00  0.00     0.000 C
BRANCH 94 114
ATOM    114  O4  IDS A 205      24.380 125.613    6.760  0.00  0.00     0.000 O
BRANCH 114 118
ATOM    115  C1  IDS A 205      27.170 127.788    8.010  0.00  0.00     0.000 C
ATOM    116  C2  IDS A 205      25.820 128.540    8.190  0.00  0.00     0.000 C
ATOM    117  C3  IDS A 205      24.620 127.629    7.900  0.00  0.00     0.000 C
ATOM    118  C4  IDS A 205      24.640 126.939    6.520  0.00  0.00     0.000 C
ATOM    119  C5  IDS A 205      26.100 126.920    5.980  0.00  0.00     0.000 C
ATOM    120  O5  IDS A 205      26.990 126.667    7.130  0.00  0.00     0.000 O
ATOM    121   O  IDS A 205      25.680 128.994    9.530  0.00  0.00     0.000 O
ATOM    122   S  IDS A 205      25.100 128.200   10.820  0.00  0.00     0.000 S
ATOM    123   O  IDS A 205      23.660 128.389   10.760  0.00  0.00     0.000 OA
ATOM    124   O  IDS A 205      25.470 126.802   10.700  0.00  0.00     0.000 OA
ATOM    125   O  IDS A 205      25.710 128.855   11.960  0.00  0.00     0.000 OA
ATOM    126   O  IDS A 205      23.430 128.377    8.040  0.00  0.00     0.000 O
ATOM    128  HD  IDS A 205      23.930 128.877    8.540  0.00  0.00     0.000 HD
ATOM    128   O  IDS A 205      26.950 124.794    5.140  0.00  0.00     0.000 OA
ATOM    129   O  IDS A 205      25.940 125.982    3.740  0.00  0.00     0.000 OA
ATOM    130   C  IDS A 205      26.350 125.836    4.880  0.00  0.00     0.000 C
BRANCH 115 131
ATOM    131  O4  SGN A 204      28.090 128.759    7.470  0.00  0.00     0.000 O
BRANCH 131 135
ATOM    132  C1  SGN A 204      31.820 128.752    5.430  0.00  0.00     0.000 C
ATOM    133  C2  SGN A 204      31.120 127.380    5.580  0.00  0.00     0.000 C
ATOM    134  C3  SGN A 204      29.640 127.635    5.850  0.00  0.00     0.000 C
ATOM    135  C4  SGN A 204      29.510 128.442    7.190  0.00  0.00     0.000 C
ATOM    136  C5  SGN A 204      30.280 129.789    7.010  0.00  0.00     0.000 C
ATOM    137  O5  SGN A 204      31.650 129.536    6.650  0.00  0.00     0.000 O
ATOM    138   O  SGN A 204      32.000 124.316    5.040  0.00  0.00     0.000 OA
ATOM    139   O  SGN A 204      32.650 125.098    2.860  0.00  0.00     0.000 OA
ATOM    140   N  SGN A 204      31.300 126.595    4.330  0.00  0.00     0.000 N
ATOM    142  HD  SGN A 204      31.800 127.095    4.830  0.00  0.00     0.000 HD
ATOM    142   S  SGN A 204      32.490 125.434    4.270  0.00  0.00     0.000 S
ATOM    143   O  SGN A 204      33.700 126.020    4.830  0.00  0.00     0.000 OA
ATOM    144   O  SGN A 204      29.020 126.399    5.990  0.00  0.00     0.000 O
ATOM    146  HD  SGN A 204      29.520 126.899    6.490  0.00  0.00     0.000 HD
ATOM    146   S  SGN A 204      29.990 130.355   10.900  0.00  0.00     0.000 S
ATOM    147   O  SGN A 204      28.560 130.365   11.170  0.00  0.00     0.000 OA
ATOM    148   O  SGN A 204      30.700 129.355   11.680  0.00  0.00     0.000 OA
ATOM    149   O  SGN A 204      30.600 131.678   11.000  0.00  0.00     0.000 OA
ATOM    150   C  SGN A 204      30.310 130.685    8.250  0.00  0.00     0.000 C
ATOM    151   O  SGN A 204      30.180 129.880    9.400  0.00  0.00     0.000 O
BRANCH 132 152
ATOM    152  O4  IDS A 203      31.260 129.443    4.300  0.00  0.00     0.000 O
BRANCH 152 156
ATOM    153  C1  IDS A 203      30.800 130.990    0.980  0.00  0.00     0.000 C
ATOM    154  C2  IDS A 203      31.830 129.837    1.170  0.00  0.00     0.000 C
ATOM    155  C3  IDS A 203      32.750 129.972    2.440  0.00  0.00     0.000 C
ATOM    156  C4  IDS A 203      32.010 130.509    3.710  0.00  0.00     0.000 C
ATOM    157  C5  IDS A 203      31.030 131.677    3.320  0.00  0.00     0.000 C
ATOM    158  O5  IDS A 203      30.160 131.258    2.240  0.00  0.00     0.000 O
ATOM    159   O  IDS A 203      31.070 128.641    1.260  0.00  0.00     0.000 O
ATOM    160   S  IDS A 203      31.030 127.441    0.250  0.00  0.00     0.000 S
ATOM    161   O  IDS A 203      32.380 126.915    0.180  0.00  0.00     0.000 OA
ATOM    162   O  IDS A 203      30.080 126.504    0.810  0.00  0.00     0.000 OA
ATOM    163   O  IDS A 203      30.590 127.983   -1.000  0.00  0.00     0.000 OA
ATOM    164   O  IDS A 203      33.820 130.864    2.140  0.00  0.00     0.000 O
ATOM    166  HD  IDS A 203      34.320 131.364    2.640  0.00  0.00     0.000 HD
ATOM    166   C  IDS A 203      30.210 132.288    4.470  0.00  0.00     0.000 C
ATOM    167   O  IDS A 203      29.010 132.091    4.580  0.00  0.00     0.000 OA
ATOM    168   O  IDS A 203      30.750 132.989    5.310  0.00  0.00     0.000 OA
BRANCH 153 169
ATOM    169  O4  SGN A 202      31.470 132.118    0.400  0.00  0.00     0.000 O
BRANCH 169 173
ATOM    170  C1  SGN A 202      30.480 135.420   -2.170  0.00  0.00     0.000 C
ATOM    171  C2  SGN A 202      30.280 135.581   -0.620  0.00  0.00     0.000 C
ATOM    172  C3  SGN A 202      31.150 134.536    0.150  0.00  0.00     0.000 C
ATOM    173  C4  SGN A 202      30.690 133.122   -0.300  0.00  0.00     0.000 C
ATOM    174  C5  SGN A 202      30.940 133.022   -1.850  0.00  0.00     0.000 C
ATOM    175  O5  SGN A 202      30.190 134.063   -2.560  0.00  0.00     0.000 O
ATOM    176   O  SGN A 202      31.770 135.797   -2.590  0.00  0.00     0.000 OA
ATOM    177   N  SGN A 202      30.610 136.985   -0.230  0.00  0.00     0.000 N
ATOM    179  HD  SGN A 202      31.110 137.485    0.270  0.00  0.00     0.000 HD
ATOM    179   S  SGN A 202      29.460 138.199   -0.300  0.00  0.00     0.000 S
ATOM    180   O  SGN A 202      28.960 138.306   -1.650  0.00  0.00     0.000 OA
ATOM    181   O  SGN A 202      28.420 137.842    0.640  0.00  0.00     0.000 OA
ATOM    182   O  SGN A 202      30.180 139.391    0.080  0.00  0.00     0.000 OA
ATOM    183   O  SGN A 202      30.930 134.683    1.550  0.00  0.00     0.000 O
ATOM    185  HD  SGN A 202      31.430 135.183    2.050  0.00  0.00     0.000 HD
ATOM    185   O  SGN A 202      28.390 129.305   -1.880  0.00  0.00     0.000 OA
ATOM    186   O  SGN A 202      26.740 131.037   -2.130  0.00  0.00     0.000 OA
ATOM    187   O  SGN A 202      28.040 130.346   -4.040  0.00  0.00     0.000 OA
ATOM    188   C  SGN A 202      30.490 131.666   -2.450  0.00  0.00     0.000 C
ATOM    189   O  SGN A 202      29.070 131.613   -2.230  0.00  0.00     0.000 O
ATOM    190   S  SGN A 202      28.010 130.500   -2.600  0.00  0.00     0.000 S
ENDBRANCH 169 173
ENDBRANCH 153 169
ENDBRANCH 152 156
ENDBRANCH 132 152
ENDBRANCH 131 135
ENDBRANCH 115 131
ENDBRANCH 114 118
ENDBRANCH 94 114
ENDBRANCH 93 97
ENDBRANCH 77 93
ENDBRANCH 76 80
ENDBRANCH 56 76
ENDBRANCH 55 59
ENDBRANCH 39 55
ENDBRANCH 38 42
ENDBRANCH 18 38
ENDBRANCH 17 21
ENDBRANCH 1 17
TORSDOF 18