ROOT
ATOM      1  C1  GCU A 401       8.430  31.116  -13.280  0.00  0.00     0.000 C
ATOM      2  C2  GCU A 401       9.320  32.357  -13.340  0.00  0.00     0.000 C
ATOM      3  C3  GCU A 401       9.270  33.050  -14.680  0.00  0.00     0.000 C
ATOM      4  C4  GCU A 401       9.490  32.050  -15.800  0.00  0.00     0.000 C
ATOM      5  C5  GCU A 401       8.640  30.790  -15.560  0.00  0.00     0.000 C
ATOM      6  O5  GCU A 401       8.920  30.235  -14.290  0.00  0.00     0.000 O
ATOM      7   O  GCU A 401       8.940  33.280  -12.330  0.00  0.00     0.000 O
ATOM      9  HD  GCU A 401       9.440  33.780  -11.830  0.00  0.00     0.000 HD
ATOM      9   O  GCU A 401      10.300  34.045  -14.790  0.00  0.00     0.000 O
ATOM     11  HD  GCU A 401      10.800  34.545  -14.290  0.00  0.00     0.000 HD
ATOM     11   O  GCU A 401       9.020  32.672  -17.010  0.00  0.00     0.000 O
ATOM     13  HD  GCU A 401       9.520  33.172  -16.510  0.00  0.00     0.000 HD
ATOM     13   C  GCU A 401       8.830  29.723  -16.570  0.00  0.00     0.000 C
ATOM     14   O  GCU A 401       8.780  28.558  -16.130  0.00  0.00     0.000 OA
ATOM     15   O  GCU A 401       8.970  30.229  -17.710  0.00  0.00     0.000 OA
ENDROOT
BRANCH 1 16
ATOM     16  O3  NAG A 402       8.560  30.541  -12.110  0.00  0.00     0.000 O
BRANCH 16 19
ATOM     17  C1  NAG A 402       6.000  29.550   -9.580  0.00  0.00     0.000 C
ATOM     18  C2  NAG A 402       6.810  30.504  -10.460  0.00  0.00     0.000 C
ATOM     19  C3  NAG A 402       7.600  29.720  -11.490  0.00  0.00     0.000 C
ATOM     20  C4  NAG A 402       8.420  28.623  -10.800  0.00  0.00     0.000 C
ATOM     21  C5  NAG A 402       7.550  27.757   -9.910  0.00  0.00     0.000 C
ATOM     22  O5  NAG A 402       6.870  28.601   -8.980  0.00  0.00     0.000 O
ATOM     23   O  NAG A 402       6.900  33.311  -10.050  0.00  0.00     0.000 OA
ATOM     24   C  NAG A 402       6.040  32.849  -10.770  0.00  0.00     0.000 C
ATOM     25   C  NAG A 402       5.060  33.803  -11.430  0.00  0.00     0.000 C
ATOM     26   N  NAG A 402       5.910  31.515  -11.020  0.00  0.00     0.000 N
ATOM     28  HD  NAG A 402       6.410  32.015  -10.520  0.00  0.00     0.000 HD
ATOM     28   O  NAG A 402       9.000  27.781  -11.800  0.00  0.00     0.000 O
ATOM     30  HD  NAG A 402       9.500  28.281  -11.300  0.00  0.00     0.000 HD
ATOM     30   O  NAG A 402       9.060  27.229   -8.010  0.00  0.00     0.000 O
ATOM     32  HD  NAG A 402       9.560  27.729   -7.510  0.00  0.00     0.000 HD
ATOM     32   C  NAG A 402       8.300  26.721   -9.110  0.00  0.00     0.000 C
BRANCH 17 33
ATOM     33  O4  GCU A 403       5.330  30.278   -8.680  0.00  0.00     0.000 O
BRANCH 33 37
ATOM     34  C1  GCU A 403       2.270  29.479   -5.890  0.00  0.00     0.000 C
ATOM     35  C2  GCU A 403       3.730  29.289   -5.470  0.00  0.00     0.000 C
ATOM     36  C3  GCU A 403       4.650  30.063   -6.380  0.00  0.00     0.000 C
ATOM     37  C4  GCU A 403       4.440  29.632   -7.820  0.00  0.00     0.000 C
ATOM     38  C5  GCU A 403       2.980  29.868   -8.230  0.00  0.00     0.000 C
ATOM     39  O5  GCU A 403       2.140  29.282   -7.270  0.00  0.00     0.000 O
ATOM     40   O  GCU A 403       3.830  29.814   -4.150  0.00  0.00     0.000 O
ATOM     42  HD  GCU A 403       4.330  30.314   -3.650  0.00  0.00     0.000 HD
ATOM     42   O  GCU A 403       6.030  29.901   -6.020  0.00  0.00     0.000 O
ATOM     44  HD  GCU A 403       6.530  30.401   -5.520  0.00  0.00     0.000 HD
ATOM     44   O  GCU A 403       2.520  30.230  -10.480  0.00  0.00     0.000 OA
ATOM     45   C  GCU A 403       2.590  29.376   -9.580  0.00  0.00     0.000 C
ATOM     46   O  GCU A 403       2.370  28.150   -9.720  0.00  0.00     0.000 OA
BRANCH 34 47
ATOM     47  O3  NAG A 404       1.590  28.798   -5.030  0.00  0.00     0.000 O
BRANCH 47 50
ATOM     48  C1  NAG A 404      -1.390  28.586   -3.090  0.00  0.00     0.000 C
ATOM     49  C2  NAG A 404      -0.220  29.369   -3.580  0.00  0.00     0.000 C
ATOM     50  C3  NAG A 404       0.210  28.790   -4.920  0.00  0.00     0.000 C
ATOM     51  C4  NAG A 404      -0.380  27.398   -5.120  0.00  0.00     0.000 C
ATOM     52  C5  NAG A 404      -1.910  27.534   -5.200  0.00  0.00     0.000 C
ATOM     53  O5  NAG A 404      -2.350  28.127   -3.980  0.00  0.00     0.000 O
ATOM     54   O  GCU A 405      -1.940  28.854   -1.890  0.00  0.00     0.000 OA
ATOM     55   C  NAG A 404      -1.240  33.028   -4.160  0.00  0.00     0.000 C
ATOM     56   N  NAG A 404      -0.370  30.835   -3.610  0.00  0.00     0.000 N
ATOM     58  HD  NAG A 404       0.130  31.335   -3.110  0.00  0.00     0.000 HD
ATOM     58   O  NAG A 404      -2.430  31.001   -4.590  0.00  0.00     0.000 OA
ATOM     59   C  NAG A 404      -1.420  31.537   -4.150  0.00  0.00     0.000 C
ATOM     60   O  NAG A 404       0.040  26.779   -6.340  0.00  0.00     0.000 O
ATOM     62  HD  NAG A 404       0.540  27.279   -5.840  0.00  0.00     0.000 HD
ATOM     62   O  NAG A 404      -3.830  25.972   -4.760  0.00  0.00     0.000 O
ATOM     64  HD  NAG A 404      -3.330  26.472   -4.260  0.00  0.00     0.000 HD
ATOM     64   C  NAG A 404      -2.620  26.237   -5.490  0.00  0.00     0.000 C
ENDBRANCH 47 50
ENDBRANCH 34 47
ENDBRANCH 33 37
ENDBRANCH 17 33
ENDBRANCH 16 19
ENDBRANCH 1 16
TORSDOF 6