ROOT
ATOM      1  C1  UAP A 301      89.690  29.398  112.680  0.00  0.00     0.000 C
ATOM      2  C2  UAP A 301      90.210  28.287  113.580  0.00  0.00     0.000 C
ATOM      3  C3  UAP A 301      90.940  27.112  112.920  0.00  0.00     0.000 C
ATOM      4  C4  UAP A 301      91.750  27.465  111.650  0.00  0.00     0.000 C
ATOM      5  C5  UAP A 301      91.590  28.911  111.200  0.00  0.00     0.000 C
ATOM      6  O5  UAP A 301      90.700  29.845  111.770  0.00  0.00     0.000 O
ATOM      7   O  UAP A 301      91.070  28.825  114.540  0.00  0.00     0.000 O
ATOM      8   S  UAP A 301      90.430  28.680  116.160  0.00  0.00     0.000 S
ATOM      9   O  UAP A 301      91.330  29.356  117.020  0.00  0.00     0.000 OA
ATOM     10   O  UAP A 301      90.370  27.294  116.520  0.00  0.00     0.000 OA
ATOM     11   O  UAP A 301      89.140  29.305  116.170  0.00  0.00     0.000 OA
ATOM     12   O  UAP A 301      89.990  26.161  112.610  0.00  0.00     0.000 O
ATOM     14  HD  UAP A 301      90.490  26.661  113.110  0.00  0.00     0.000 HD
ATOM     14   O  UAP A 301      93.420  28.554  109.670  0.00  0.00     0.000 OA
ATOM     15   O  UAP A 301      92.560  30.567  109.830  0.00  0.00     0.000 OA
ATOM     16   C  UAP A 301      92.600  29.362  110.140  0.00  0.00     0.000 C
ENDROOT
BRANCH 1 17
ATOM     17  O4  SGN A 302      88.580  28.824  111.990  0.00  0.00     0.000 O
BRANCH 17 21
ATOM     18  C1  SGN A 302      85.540  30.012  109.290  0.00  0.00     0.000 C
ATOM     19  C2  SGN A 302      86.980  30.469  109.040  0.00  0.00     0.000 C
ATOM     20  C3  SGN A 302      87.970  29.647  109.810  0.00  0.00     0.000 C
ATOM     21  C4  SGN A 302      87.640  29.644  111.310  0.00  0.00     0.000 C
ATOM     22  C5  SGN A 302      86.250  29.030  111.430  0.00  0.00     0.000 C
ATOM     23  O5  SGN A 302      85.320  29.879  110.710  0.00  0.00     0.000 O
ATOM     24   S  SGN A 302      87.580  31.301  106.500  0.00  0.00     0.000 S
ATOM     25   O  SGN A 302      88.250  30.698  105.380  0.00  0.00     0.000 OA
ATOM     26   O  SGN A 302      88.410  32.279  107.130  0.00  0.00     0.000 OA
ATOM     27   O  SGN A 302      86.320  31.894  106.100  0.00  0.00     0.000 OA
ATOM     28   N  SGN A 302      87.260  30.069  107.690  0.00  0.00     0.000 N
ATOM     30  HD  SGN A 302      87.760  30.569  108.190  0.00  0.00     0.000 HD
ATOM     30   O  SGN A 302      89.250  30.179  109.540  0.00  0.00     0.000 O
ATOM     32  HD  SGN A 302      89.750  30.679  110.040  0.00  0.00     0.000 HD
ATOM     32   O  SGN A 302      86.570  29.558  113.790  0.00  0.00     0.000 O
ATOM     33   S  SGN A 302      85.940  31.073  114.410  0.00  0.00     0.000 S
ATOM     34   O  SGN A 302      86.880  31.639  115.330  0.00  0.00     0.000 OA
ATOM     35   O  SGN A 302      84.680  30.805  115.070  0.00  0.00     0.000 OA
ATOM     36   O  SGN A 302      85.710  31.961  113.290  0.00  0.00     0.000 OA
ATOM     37   C  SGN A 302      85.740  28.878  112.860  0.00  0.00     0.000 C
BRANCH 18 38
ATOM     38  O4  SGN A 302      85.330  28.797  108.600  0.00  0.00     0.000 O
BRANCH 38 42
ATOM     39  C1  IDS A 303      84.530  25.825  106.860  0.00  0.00     0.000 C
ATOM     40  C2  IDS A 303      84.620  27.189  106.140  0.00  0.00     0.000 C
ATOM     41  C3  IDS A 303      83.810  28.355  106.750  0.00  0.00     0.000 C
ATOM     42  C4  IDS A 303      83.990  28.440  108.280  0.00  0.00     0.000 C
ATOM     43  C5  IDS A 303      83.810  27.051  108.830  0.00  0.00     0.000 C
ATOM     44  O5  IDS A 303      84.550  25.993  108.280  0.00  0.00     0.000 O
ATOM     45   O  IDS A 303      85.940  27.567  105.950  0.00  0.00     0.000 O
ATOM     46   S  IDS A 303      86.460  27.468  104.280  0.00  0.00     0.000 S
ATOM     47   O  IDS A 303      87.350  26.350  104.180  0.00  0.00     0.000 OA
ATOM     48   O  IDS A 303      87.140  28.685  103.960  0.00  0.00     0.000 OA
ATOM     49   O  IDS A 303      85.280  27.270  103.460  0.00  0.00     0.000 OA
ATOM     50   O  IDS A 303      82.470  28.202  106.420  0.00  0.00     0.000 O
ATOM     52  HD  IDS A 303      82.970  28.702  106.920  0.00  0.00     0.000 HD
ATOM     52   C  IDS A 303      83.460  27.021  110.300  0.00  0.00     0.000 C
ATOM     53   O  IDS A 303      82.340  27.443  110.670  0.00  0.00     0.000 OA
ATOM     54   O  IDS A 303      84.300  26.509  111.070  0.00  0.00     0.000 OA
BRANCH 39 55
ATOM     55  O4  SGN A 304      83.360  25.205  106.390  0.00  0.00     0.000 O
BRANCH 55 59
ATOM     56  C1  SGN A 304      81.550  21.436  106.450  0.00  0.00     0.000 C
ATOM     57  C2  SGN A 304      81.500  22.296  107.710  0.00  0.00     0.000 C
ATOM     58  C3  SGN A 304      81.740  23.755  107.380  0.00  0.00     0.000 C
ATOM     59  C4  SGN A 304      83.120  23.856  106.730  0.00  0.00     0.000 C
ATOM     60  C5  SGN A 304      83.100  23.016  105.460  0.00  0.00     0.000 C
ATOM     61  O5  SGN A 304      82.820  21.647  105.810  0.00  0.00     0.000 O
ATOM     62   N  SGN A 304      80.150  22.210  108.200  0.00  0.00     0.000 N
ATOM     64  HD  SGN A 304      80.650  22.710  108.700  0.00  0.00     0.000 HD
ATOM     64   S  SGN A 304      79.690  20.719  109.000  0.00  0.00     0.000 S
ATOM     65   O  SGN A 304      79.520  19.669  108.040  0.00  0.00     0.000 OA
ATOM     66   O  SGN A 304      78.460  20.955  109.670  0.00  0.00     0.000 OA
ATOM     67   O  SGN A 304      80.690  20.366  109.950  0.00  0.00     0.000 OA
ATOM     68   O  SGN A 304      81.710  24.514  108.570  0.00  0.00     0.000 O
ATOM     70  HD  SGN A 304      82.210  25.014  109.070  0.00  0.00     0.000 HD
ATOM     70   O  SGN A 304      85.190  21.894  105.070  0.00  0.00     0.000 O
ATOM     71   S  SGN A 304      86.850  22.131  105.580  0.00  0.00     0.000 S
ATOM     72   O  SGN A 304      86.930  21.899  106.990  0.00  0.00     0.000 OA
ATOM     73   O  SGN A 304      87.270  23.479  105.270  0.00  0.00     0.000 OA
ATOM     74   O  SGN A 304      87.660  21.200  104.850  0.00  0.00     0.000 OA
ATOM     75   C  SGN A 304      84.430  23.055  104.730  0.00  0.00     0.000 C
BRANCH 56 76
ATOM     76  O4  SGN A 304      80.500  21.829  105.590  0.00  0.00     0.000 O
BRANCH 76 80
ATOM     77  C1  IDS A 305      78.340  22.598  102.780  0.00  0.00     0.000 C
ATOM     78  C2  IDS A 305      77.900  22.106  104.180  0.00  0.00     0.000 C
ATOM     79  C3  IDS A 305      78.570  20.798  104.650  0.00  0.00     0.000 C
ATOM     80  C4  IDS A 305      80.090  20.915  104.590  0.00  0.00     0.000 C
ATOM     81  C5  IDS A 305      80.460  21.546  103.260  0.00  0.00     0.000 C
ATOM     82  O5  IDS A 305      79.760  22.661  102.750  0.00  0.00     0.000 O
ATOM     83   O  IDS A 305      78.060  23.099  105.150  0.00  0.00     0.000 O
ATOM     84   S  IDS A 305      76.790  23.109  106.330  0.00  0.00     0.000 S
ATOM     85   O  IDS A 305      77.280  22.401  107.450  0.00  0.00     0.000 OA
ATOM     86   O  IDS A 305      75.640  22.473  105.780  0.00  0.00     0.000 OA
ATOM     87   O  IDS A 305      76.530  24.471  106.660  0.00  0.00     0.000 OA
ATOM     88   O  IDS A 305      78.140  19.765  103.860  0.00  0.00     0.000 O
ATOM     90  HD  IDS A 305      78.640  20.265  104.360  0.00  0.00     0.000 HD
ATOM     90   O  IDS A 305      82.510  22.188  102.380  0.00  0.00     0.000 OA
ATOM     91   C  IDS A 305      81.830  21.221  102.760  0.00  0.00     0.000 C
ATOM     92   O  IDS A 305      82.230  20.045  102.780  0.00  0.00     0.000 OA
BRANCH 77 93
ATOM     93  O4  SGN A 306      77.850  21.619  101.910  0.00  0.00     0.000 O
BRANCH 93 97
ATOM     94  C1  SGN A 306      75.940  21.020   98.410  0.00  0.00     0.000 C
ATOM     95  C2  SGN A 306      77.390  21.441   98.260  0.00  0.00     0.000 C
ATOM     96  C3  SGN A 306      78.030  21.143   99.600  0.00  0.00     0.000 C
ATOM     97  C4  SGN A 306      77.280  21.952  100.670  0.00  0.00     0.000 C
ATOM     98  C5  SGN A 306      75.800  21.551  100.670  0.00  0.00     0.000 C
ATOM     99  O5  SGN A 306      75.280  21.838   99.360  0.00  0.00     0.000 O
ATOM    100   N  SGN A 306      78.010  20.505   97.360  0.00  0.00     0.000 N
ATOM    102  HD  SGN A 306      78.510  21.005   97.860  0.00  0.00     0.000 HD
ATOM    102   S  SGN A 306      78.840  21.123   95.930  0.00  0.00     0.000 S
ATOM    103   O  SGN A 306      78.150  22.293   95.430  0.00  0.00     0.000 OA
ATOM    104   O  SGN A 306      78.820  20.069   94.970  0.00  0.00     0.000 OA
ATOM    105   O  SGN A 306      80.200  21.447   96.260  0.00  0.00     0.000 OA
ATOM    106   O  SGN A 306      79.390  21.513   99.580  0.00  0.00     0.000 O
ATOM    108  HD  SGN A 306      79.890  22.013  100.080  0.00  0.00     0.000 HD
ATOM    108   C  SGN A 306      75.000  22.335  101.710  0.00  0.00     0.000 C
ATOM    109   O  SGN A 306      73.610  22.334  101.350  0.00  0.00     0.000 O
ATOM    110   S  SGN A 306      72.540  21.070  102.010  0.00  0.00     0.000 S
ATOM    111   O  SGN A 306      71.550  20.739  101.010  0.00  0.00     0.000 OA
ATOM    112   O  SGN A 306      71.900  21.592  103.180  0.00  0.00     0.000 OA
ATOM    113   O  SGN A 306      73.330  19.905  102.380  0.00  0.00     0.000 OA
BRANCH 94 114
ATOM    114  O4  SGN A 306      75.240  20.746   97.220  0.00  0.00     0.000 O
BRANCH 114 118
ATOM    115  C1  IDU A 307      72.270  18.240   96.780  0.00  0.00     0.000 C
ATOM    116  C2  IDU A 307      72.830  19.354   95.850  0.00  0.00     0.000 C
ATOM    117  C3  IDU A 307      74.330  19.161   95.580  0.00  0.00     0.000 C
ATOM    118  C4  IDU A 307      75.110  19.348   96.880  0.00  0.00     0.000 C
ATOM    119  C5  IDU A 307      74.390  18.609   98.040  0.00  0.00     0.000 C
ATOM    120  O5  IDU A 307      72.970  18.382   98.030  0.00  0.00     0.000 O
ATOM    121   O  IDU A 307      72.130  19.379   94.630  0.00  0.00     0.000 O
ATOM    122   S  IDU A 307      71.960  20.971   93.890  0.00  0.00     0.000 S
ATOM    123   O  IDU A 307      72.890  21.048   92.810  0.00  0.00     0.000 OA
ATOM    124   O  IDU A 307      72.260  21.983   94.860  0.00  0.00     0.000 OA
ATOM    125   O  IDU A 307      70.600  21.050   93.410  0.00  0.00     0.000 OA
ATOM    126   O  IDU A 307      74.770  20.060   94.620  0.00  0.00     0.000 O
ATOM    128  HD  IDU A 307      75.270  20.560   95.120  0.00  0.00     0.000 HD
ATOM    128   O  IDU A 307      75.560  16.537   97.870  0.00  0.00     0.000 OA
ATOM    129   O  IDU A 307      75.790  17.722   99.710  0.00  0.00     0.000 OA
ATOM    130   C  IDU A 307      75.270  17.508   98.590  0.00  0.00     0.000 C
BRANCH 115 131
ATOM    131  O4  SGN A 308      72.520  16.961   96.150  0.00  0.00     0.000 O
BRANCH 131 135
ATOM    132  C1  SGN A 308      68.960  14.597   96.720  0.00  0.00     0.000 C
ATOM    133  C2  SGN A 308      70.280  14.238   97.420  0.00  0.00     0.000 C
ATOM    134  C3  SGN A 308      71.230  15.425   97.570  0.00  0.00     0.000 C
ATOM    135  C4  SGN A 308      71.560  15.862   96.150  0.00  0.00     0.000 C
ATOM    136  C5  SGN A 308      70.260  16.281   95.420  0.00  0.00     0.000 C
ATOM    137  O5  SGN A 308      69.270  15.192   95.430  0.00  0.00     0.000 O
ENDBRANCH 131 135
ENDBRANCH 115 131
ENDBRANCH 114 118
ENDBRANCH 94 114
ENDBRANCH 93 97
ENDBRANCH 77 93
ENDBRANCH 76 80
ENDBRANCH 56 76
ENDBRANCH 55 59
ENDBRANCH 39 55
ENDBRANCH 38 42
ENDBRANCH 18 38
ENDBRANCH 17 21
ENDBRANCH 1 17
TORSDOF 14