ROOT
ATOM      1  C1  UAP B 301     100.020  28.298  114.700  0.00  0.00     0.000 C
ATOM      2  C2  UAP B 301      98.800  28.703  115.510  0.00  0.00     0.000 C
ATOM      3  C3  UAP B 301      98.370  30.176  115.490  0.00  0.00     0.000 C
ATOM      4  C4  UAP B 301      98.650  30.935  114.170  0.00  0.00     0.000 C
ATOM      5  C5  UAP B 301      99.430  30.109  113.140  0.00  0.00     0.000 C
ATOM      6  O5  UAP B 301      99.980  28.825  113.380  0.00  0.00     0.000 O
ATOM      7   O  UAP B 301      95.550  27.086  116.130  0.00  0.00     0.000 OA
ATOM      8   O  UAP B 301      97.170  27.801  117.660  0.00  0.00     0.000 OA
ATOM      9   O  UAP B 301      97.480  25.787  116.420  0.00  0.00     0.000 OA
ATOM     10   O  UAP B 301      97.710  27.947  115.110  0.00  0.00     0.000 O
ATOM     11   S  UAP B 301      96.930  27.106  116.420  0.00  0.00     0.000 S
ATOM     12   O  UAP B 301      99.010  30.808  116.550  0.00  0.00     0.000 O
ATOM     14  HD  UAP B 301      99.510  31.308  117.050  0.00  0.00     0.000 HD
ATOM     14   C  UAP B 301      99.490  30.709  111.740  0.00  0.00     0.000 C
ATOM     15   O  UAP B 301      98.970  31.820  111.520  0.00  0.00     0.000 OA
ATOM     16   O  UAP B 301     100.040  30.013  110.870  0.00  0.00     0.000 OA
ENDROOT
BRANCH 1 17
ATOM     17  O4  SGN B 302     101.110  28.799  115.410  0.00  0.00     0.000 O
BRANCH 17 21
ATOM     18  C1  SGN B 302     105.150  27.927  115.940  0.00  0.00     0.000 C
ATOM     19  C2  SGN B 302     104.600  28.077  114.520  0.00  0.00     0.000 C
ATOM     20  C3  SGN B 302     103.310  28.875  114.530  0.00  0.00     0.000 C
ATOM     21  C4  SGN B 302     102.320  28.099  115.370  0.00  0.00     0.000 C
ATOM     22  C5  SGN B 302     102.850  27.973  116.790  0.00  0.00     0.000 C
ATOM     23  O5  SGN B 302     104.130  27.284  116.750  0.00  0.00     0.000 O
ATOM     24   N  SGN B 302     105.560  28.873  113.790  0.00  0.00     0.000 N
ATOM     26  HD  SGN B 302     106.060  29.373  114.290  0.00  0.00     0.000 HD
ATOM     26   S  SGN B 302     106.360  28.149  112.390  0.00  0.00     0.000 S
ATOM     27   O  SGN B 302     105.800  28.719  111.190  0.00  0.00     0.000 OA
ATOM     28   O  SGN B 302     106.110  26.740  112.440  0.00  0.00     0.000 OA
ATOM     29   O  SGN B 302     107.780  28.395  112.460  0.00  0.00     0.000 OA
ATOM     30   O  SGN B 302     102.810  28.997  113.210  0.00  0.00     0.000 O
ATOM     32  HD  SGN B 302     103.310  29.497  113.710  0.00  0.00     0.000 HD
ATOM     32   C  SGN B 302     101.850  27.216  117.650  0.00  0.00     0.000 C
ATOM     33   O  SGN B 302     102.390  26.010  118.130  0.00  0.00     0.000 O
ATOM     34   S  SGN B 302     101.880  25.536  119.750  0.00  0.00     0.000 S
ATOM     35   O  SGN B 302     102.780  26.112  120.710  0.00  0.00     0.000 OA
ATOM     36   O  SGN B 302     101.910  24.101  119.820  0.00  0.00     0.000 OA
ATOM     37   O  SGN B 302     100.540  25.998  119.960  0.00  0.00     0.000 OA
BRANCH 18 38
ATOM     38  O4  SGN B 302     105.460  29.240  116.410  0.00  0.00     0.000 O
BRANCH 38 42
ATOM     39  C1  IDS B 303     107.510  32.140  117.250  0.00  0.00     0.000 C
ATOM     40  C2  IDS B 303     108.030  30.897  116.500  0.00  0.00     0.000 C
ATOM     41  C3  IDS B 303     107.760  29.547  117.180  0.00  0.00     0.000 C
ATOM     42  C4  IDS B 303     106.270  29.394  117.580  0.00  0.00     0.000 C
ATOM     43  C5  IDS B 303     105.810  30.692  118.230  0.00  0.00     0.000 C
ATOM     44  O5  IDS B 303     106.170  31.938  117.670  0.00  0.00     0.000 O
ATOM     45   S  IDS B 303     108.350  31.717  113.990  0.00  0.00     0.000 S
ATOM     46   O  IDS B 303     108.330  33.100  114.340  0.00  0.00     0.000 OA
ATOM     47   O  IDS B 303     107.690  31.508  112.730  0.00  0.00     0.000 OA
ATOM     48   O  IDS B 303     109.690  31.189  113.990  0.00  0.00     0.000 OA
ATOM     49   O  IDS B 303     107.460  30.848  115.230  0.00  0.00     0.000 O
ATOM     50   O  IDS B 303     108.600  29.380  118.260  0.00  0.00     0.000 O
ATOM     52  HD  IDS B 303     109.100  29.880  118.760  0.00  0.00     0.000 HD
ATOM     52   O  IDS B 303     104.240  30.076  119.890  0.00  0.00     0.000 OA
ATOM     53   O  IDS B 303     103.540  31.207  118.150  0.00  0.00     0.000 OA
ATOM     54   C  IDS B 303     104.410  30.583  118.780  0.00  0.00     0.000 C
BRANCH 39 55
ATOM     55  O4  SGN B 304     108.410  32.461  118.300  0.00  0.00     0.000 O
BRANCH 55 59
ATOM     56  C1  SGN B 304     108.750  35.371  121.360  0.00  0.00     0.000 C
ATOM     57  C2  SGN B 304     108.090  34.009  121.680  0.00  0.00     0.000 C
ATOM     58  C3  SGN B 304     108.480  32.951  120.640  0.00  0.00     0.000 C
ATOM     59  C4  SGN B 304     108.040  33.447  119.270  0.00  0.00     0.000 C
ATOM     60  C5  SGN B 304     108.770  34.776  118.990  0.00  0.00     0.000 C
ATOM     61  O5  SGN B 304     108.400  35.740  120.010  0.00  0.00     0.000 O
ATOM     62   N  SGN B 304     108.670  33.544  122.920  0.00  0.00     0.000 N
ATOM     64  HD  SGN B 304     109.170  34.044  123.420  0.00  0.00     0.000 HD
ATOM     64   S  SGN B 304     108.130  34.247  124.440  0.00  0.00     0.000 S
ATOM     65   O  SGN B 304     108.270  35.675  124.420  0.00  0.00     0.000 OA
ATOM     66   O  SGN B 304     108.950  33.683  125.460  0.00  0.00     0.000 OA
ATOM     67   O  SGN B 304     106.770  33.896  124.660  0.00  0.00     0.000 OA
ATOM     68   O  SGN B 304     107.830  31.733  120.960  0.00  0.00     0.000 O
ATOM     70  HD  SGN B 304     108.330  32.233  121.460  0.00  0.00     0.000 HD
ATOM     70   C  SGN B 304     108.370  35.353  117.660  0.00  0.00     0.000 C
ATOM     71   O  SGN B 304     106.950  35.487  117.670  0.00  0.00     0.000 O
ATOM     72   S  SGN B 304     106.170  36.048  116.210  0.00  0.00     0.000 S
ATOM     73   O  SGN B 304     106.510  37.422  116.000  0.00  0.00     0.000 OA
ATOM     74   O  SGN B 304     104.750  35.906  116.390  0.00  0.00     0.000 OA
ATOM     75   O  SGN B 304     106.620  35.226  115.110  0.00  0.00     0.000 OA
BRANCH 56 76
ATOM     76  O4  SGN B 304     110.170  35.272  121.510  0.00  0.00     0.000 O
BRANCH 76 80
ATOM     77  C1  IDS B 305     113.820  35.637  121.820  0.00  0.00     0.000 C
ATOM     78  C2  IDS B 305     112.980  35.513  123.120  0.00  0.00     0.000 C
ATOM     79  C3  IDS B 305     111.600  36.191  123.260  0.00  0.00     0.000 C
ATOM     80  C4  IDS B 305     110.880  36.447  121.930  0.00  0.00     0.000 C
ATOM     81  C5  IDS B 305     111.890  36.795  120.850  0.00  0.00     0.000 C
ATOM     82  O5  IDS B 305     113.030  35.994  120.680  0.00  0.00     0.000 O
ATOM     83   O  IDS B 305     113.100  34.288  123.830  0.00  0.00     0.000 O
ATOM     84   S  IDS B 305     112.590  32.792  123.030  0.00  0.00     0.000 S
ATOM     85   O  IDS B 305     113.320  32.639  121.830  0.00  0.00     0.000 OA
ATOM     86   O  IDS B 305     111.200  32.849  122.770  0.00  0.00     0.000 OA
ATOM     87   O  IDS B 305     112.900  31.736  123.930  0.00  0.00     0.000 OA
ATOM     88   O  IDS B 305     111.770  37.366  123.950  0.00  0.00     0.000 O
ATOM     90  HD  IDS B 305     112.270  37.866  124.450  0.00  0.00     0.000 HD
ATOM     90   O  IDS B 305     110.310  38.190  119.720  0.00  0.00     0.000 OA
ATOM     91   O  IDS B 305     111.540  36.840  118.510  0.00  0.00     0.000 OA
ATOM     92   C  IDS B 305     111.250  37.386  119.590  0.00  0.00     0.000 C
BRANCH 77 93
ATOM     93  O4  SGN B 306     114.940  36.492  122.080  0.00  0.00     0.000 O
BRANCH 93 97
ATOM     94  C1  SGN B 306     118.590  37.514  120.110  0.00  0.00     0.000 C
ATOM     95  C2  SGN B 306     117.360  38.431  119.980  0.00  0.00     0.000 C
ATOM     96  C3  SGN B 306     116.340  38.190  121.080  0.00  0.00     0.000 C
ATOM     97  C4  SGN B 306     115.900  36.723  121.030  0.00  0.00     0.000 C
ATOM     98  C5  SGN B 306     117.170  35.861  121.260  0.00  0.00     0.000 C
ATOM     99  O5  SGN B 306     118.130  36.144  120.200  0.00  0.00     0.000 O
ATOM    100   O  SGN B 306     119.340  37.901  121.260  0.00  0.00     0.000 OA
ATOM    101   N  SGN B 306     117.820  39.779  120.170  0.00  0.00     0.000 N
ATOM    103  HD  SGN B 306     118.320  40.279  120.670  0.00  0.00     0.000 HD
ATOM    103   S  SGN B 306     117.440  40.946  118.910  0.00  0.00     0.000 S
ATOM    104   O  SGN B 306     116.050  40.865  118.570  0.00  0.00     0.000 OA
ATOM    105   O  SGN B 306     118.250  40.608  117.780  0.00  0.00     0.000 OA
ATOM    106   O  SGN B 306     117.770  42.270  119.380  0.00  0.00     0.000 OA
ATOM    107   O  SGN B 306     115.240  39.053  120.880  0.00  0.00     0.000 O
ATOM    109  HD  SGN B 306     115.740  39.553  121.380  0.00  0.00     0.000 HD
ATOM    109   C  SGN B 306     116.830  34.380  121.240  0.00  0.00     0.000 C
ATOM    110   O  SGN B 306     117.550  33.718  120.230  0.00  0.00     0.000 O
ATOM    111   S  SGN B 306     117.360  31.974  120.160  0.00  0.00     0.000 S
ATOM    112   O  SGN B 306     118.430  31.404  119.390  0.00  0.00     0.000 OA
ATOM    113   O  SGN B 306     116.090  31.698  119.560  0.00  0.00     0.000 OA
ATOM    114   O  SGN B 306     117.380  31.467  121.510  0.00  0.00     0.000 OA
ENDBRANCH 93 97
ENDBRANCH 77 93
ENDBRANCH 76 80
ENDBRANCH 56 76
ENDBRANCH 55 59
ENDBRANCH 39 55
ENDBRANCH 38 42
ENDBRANCH 18 38
ENDBRANCH 17 21
ENDBRANCH 1 17
TORSDOF 10