ROOT
ATOM      1  C1  UAP A 801     -35.700  81.271   18.220  0.00  0.00     0.000 C
ATOM      2  C2  UAP A 801     -36.290  80.154   19.070  0.00  0.00     0.000 C
ATOM      3  C3  UAP A 801     -36.600  80.640   20.480  0.00  0.00     0.000 C
ATOM      4  C4  UAP A 801     -37.100  81.999   20.480  0.00  0.00     0.000 C
ATOM      5  C5  UAP A 801     -37.100  82.788   19.390  0.00  0.00     0.000 C
ATOM      6  O5  UAP A 801     -36.620  82.368   18.200  0.00  0.00     0.000 O
ATOM      7   O  UAP A 801     -37.490  79.676   18.460  0.00  0.00     0.000 O
ATOM      8   S  UAP A 801     -37.770  77.936   18.310  0.00  0.00     0.000 S
ATOM      9   O  UAP A 801     -39.010  77.700   17.550  0.00  0.00     0.000 OA
ATOM     10   O  UAP A 801     -37.890  77.333   19.650  0.00  0.00     0.000 OA
ATOM     11   O  UAP A 801     -36.630  77.321   17.600  0.00  0.00     0.000 OA
ATOM     12   O  UAP A 801     -35.450  80.553   21.290  0.00  0.00     0.000 O
ATOM     14  HD  UAP A 801     -34.950  81.053   21.790  0.00  0.00     0.000 HD
ATOM     14   O  UAP A 801     -38.060  84.419   20.580  0.00  0.00     0.000 OA
ATOM     15   O  UAP A 801     -37.610  84.755   18.460  0.00  0.00     0.000 OA
ATOM     16   C  UAP A 801     -37.600  84.021   19.480  0.00  0.00     0.000 C
ENDROOT
BRANCH 1 17
ATOM     17  O4  SGN A 802     -34.430  81.649   18.750  0.00  0.00     0.000 O
BRANCH 17 21
ATOM     18  C1  SGN A 802     -31.230  83.910   17.280  0.00  0.00     0.000 C
ATOM     19  C2  SGN A 802     -32.320  84.642   18.060  0.00  0.00     0.000 C
ATOM     20  C3  SGN A 802     -33.110  83.647   18.900  0.00  0.00     0.000 C
ATOM     21  C4  SGN A 802     -33.720  82.609   17.970  0.00  0.00     0.000 C
ATOM     22  C5  SGN A 802     -32.600  81.916   17.180  0.00  0.00     0.000 C
ATOM     23  O5  SGN A 802     -31.850  82.905   16.460  0.00  0.00     0.000 O
ATOM     24   S  SGN A 802     -31.540  87.296   18.270  0.00  0.00     0.000 S
ATOM     25   O  SGN A 802     -31.350  88.241   19.380  0.00  0.00     0.000 OA
ATOM     26   O  SGN A 802     -32.740  87.671   17.500  0.00  0.00     0.000 OA
ATOM     27   O  SGN A 802     -30.360  87.334   17.380  0.00  0.00     0.000 OA
ATOM     28   N  SGN A 802     -31.730  85.661   18.910  0.00  0.00     0.000 N
ATOM     30  HD  SGN A 802     -31.230  86.161   19.410  0.00  0.00     0.000 HD
ATOM     30   O  SGN A 802     -34.120  84.315   19.620  0.00  0.00     0.000 O
ATOM     32  HD  SGN A 802     -33.620  84.815   20.120  0.00  0.00     0.000 HD
ATOM     32   O  SGN A 802     -33.930  81.714   15.220  0.00  0.00     0.000 O
ATOM     33   S  SGN A 802     -34.740  80.917   13.870  0.00  0.00     0.000 S
ATOM     34   O  SGN A 802     -35.750  79.970   14.390  0.00  0.00     0.000 OA
ATOM     35   O  SGN A 802     -35.410  81.936   13.030  0.00  0.00     0.000 OA
ATOM     36   O  SGN A 802     -33.740  80.190   13.060  0.00  0.00     0.000 OA
ATOM     37   C  SGN A 802     -33.200  80.951   16.170  0.00  0.00     0.000 C
BRANCH 18 38
ATOM     38  O4  SGN A 802     -30.280  83.339   18.190  0.00  0.00     0.000 O
BRANCH 38 42
ATOM     39  C1  IDS A 803     -27.430  82.790   20.080  0.00  0.00     0.000 C
ATOM     40  C2  IDS A 803     -27.920  84.183   19.690  0.00  0.00     0.000 C
ATOM     41  C3  IDS A 803     -28.050  84.288   18.170  0.00  0.00     0.000 C
ATOM     42  C4  IDS A 803     -28.960  83.179   17.650  0.00  0.00     0.000 C
ATOM     43  C5  IDS A 803     -28.390  81.829   18.080  0.00  0.00     0.000 C
ATOM     44  O5  IDS A 803     -28.300  81.791   19.520  0.00  0.00     0.000 O
ATOM     45   O  IDS A 803     -29.160  84.475   20.320  0.00  0.00     0.000 O
ATOM     46   S  IDS A 803     -29.250  85.802   21.490  0.00  0.00     0.000 S
ATOM     47   O  IDS A 803     -30.630  86.306   21.560  0.00  0.00     0.000 OA
ATOM     48   O  IDS A 803     -28.350  86.890   21.060  0.00  0.00     0.000 OA
ATOM     49   O  IDS A 803     -28.830  85.319   22.820  0.00  0.00     0.000 OA
ATOM     50   O  IDS A 803     -26.780  84.219   17.550  0.00  0.00     0.000 O
ATOM     52  HD  IDS A 803     -26.280  84.719   18.050  0.00  0.00     0.000 HD
ATOM     52   C  IDS A 803     -29.320  80.708   17.650  0.00  0.00     0.000 C
ATOM     53   O  IDS A 803     -29.160  80.202   16.520  0.00  0.00     0.000 OA
ATOM     54   O  IDS A 803     -30.200  80.311   18.450  0.00  0.00     0.000 OA
BRANCH 39 55
ATOM     55  O4  SGN A 804     -26.070  82.596   19.710  0.00  0.00     0.000 O
BRANCH 55 59
ATOM     56  C1  SGN A 804     -23.110  79.884   20.910  0.00  0.00     0.000 C
ATOM     57  C2  SGN A 804     -24.420  79.303   20.370  0.00  0.00     0.000 C
ATOM     58  C3  SGN A 804     -25.170  80.367   19.580  0.00  0.00     0.000 C
ATOM     59  C4  SGN A 804     -25.410  81.576   20.470  0.00  0.00     0.000 C
ATOM     60  C5  SGN A 804     -24.070  82.096   20.990  0.00  0.00     0.000 C
ATOM     61  O5  SGN A 804     -23.400  81.048   21.700  0.00  0.00     0.000 O
ATOM     62   O  SGN A 804     -22.230  80.195   19.830  0.00  0.00     0.000 OA
ATOM     63   N  SGN A 804     -24.140  78.178   19.500  0.00  0.00     0.000 N
ATOM     65  HD  SGN A 804     -23.640  78.678   20.000  0.00  0.00     0.000 HD
ATOM     65   S  SGN A 804     -23.490  76.670   20.160  0.00  0.00     0.000 S
ATOM     66   O  SGN A 804     -22.180  76.396   19.540  0.00  0.00     0.000 OA
ATOM     67   O  SGN A 804     -24.410  75.559   19.850  0.00  0.00     0.000 OA
ATOM     68   O  SGN A 804     -23.340  76.798   21.620  0.00  0.00     0.000 OA
ATOM     69   O  SGN A 804     -26.390  79.842   19.120  0.00  0.00     0.000 O
ATOM     71  HD  SGN A 804     -25.890  80.342   19.620  0.00  0.00     0.000 HD
ATOM     71   C  SGN A 804     -24.240  83.328   21.870  0.00  0.00     0.000 C
ATOM     72   O  SGN A 804     -24.920  82.979   23.070  0.00  0.00     0.000 O
ATOM     73   S  SGN A 804     -25.250  84.230   24.280  0.00  0.00     0.000 S
ATOM     74   O  SGN A 804     -24.030  85.027   24.510  0.00  0.00     0.000 OA
ATOM     75   O  SGN A 804     -26.330  85.113   23.790  0.00  0.00     0.000 OA
ATOM     76   O  SGN A 804     -25.670  83.596   25.540  0.00  0.00     0.000 OA
ENDBRANCH 55 59
ENDBRANCH 39 55
ENDBRANCH 38 42
ENDBRANCH 18 38
ENDBRANCH 17 21
ENDBRANCH 1 17
TORSDOF 6