ROOT
ATOM      1  C1  UAP A 901      -4.650  57.553  -14.720  0.00  0.00     0.000 C
ATOM      2  C2  UAP A 901      -4.940  59.039  -14.880  0.00  0.00     0.000 C
ATOM      3  C3  UAP A 901      -5.360  59.422  -16.300  0.00  0.00     0.000 C
ATOM      4  C4  UAP A 901      -5.770  58.290  -17.100  0.00  0.00     0.000 C
ATOM      5  C5  UAP A 901      -5.930  57.050  -16.600  0.00  0.00     0.000 C
ATOM      6  O5  UAP A 901      -5.700  56.790  -15.310  0.00  0.00     0.000 O
ATOM      7   O  UAP A 901      -5.950  59.435  -13.960  0.00  0.00     0.000 O
ATOM      8   S  UAP A 901      -5.860  61.026  -13.200  0.00  0.00     0.000 S
ATOM      9   O  UAP A 901      -7.060  61.245  -12.370  0.00  0.00     0.000 OA
ATOM     10   O  UAP A 901      -5.780  62.068  -14.240  0.00  0.00     0.000 OA
ATOM     11   O  UAP A 901      -4.660  61.091  -12.350  0.00  0.00     0.000 OA
ATOM     12   O  UAP A 901      -4.320  60.116  -16.950  0.00  0.00     0.000 O
ATOM     14  HD  UAP A 901      -3.820  60.616  -16.450  0.00  0.00     0.000 HD
ATOM     14   O  UAP A 901      -6.560  56.325  -18.620  0.00  0.00     0.000 OA
ATOM     15   O  UAP A 901      -6.490  54.920  -16.950  0.00  0.00     0.000 OA
ATOM     16   C  UAP A 901      -6.330  56.070  -17.410  0.00  0.00     0.000 C
ENDROOT
BRANCH 1 17
ATOM     17  O4  SGN A 902      -3.380  57.247  -15.310  0.00  0.00     0.000 O
BRANCH 17 21
ATOM     18  C1  SGN A 902      -0.640  54.144  -14.720  0.00  0.00     0.000 C
ATOM     19  C2  SGN A 902      -1.700  53.954  -15.810  0.00  0.00     0.000 C
ATOM     20  C3  SGN A 902      -2.280  55.309  -16.200  0.00  0.00     0.000 C
ATOM     21  C4  SGN A 902      -2.870  55.960  -14.960  0.00  0.00     0.000 C
ATOM     22  C5  SGN A 902      -1.790  56.109  -13.890  0.00  0.00     0.000 C
ATOM     23  O5  SGN A 902      -1.230  54.816  -13.600  0.00  0.00     0.000 O
ATOM     24   N  SGN A 902      -1.100  53.330  -16.970  0.00  0.00     0.000 N
ATOM     26  HD  SGN A 902      -0.600  53.830  -16.470  0.00  0.00     0.000 HD
ATOM     26   S  SGN A 902      -0.810  51.584  -16.970  0.00  0.00     0.000 S
ATOM     27   O  SGN A 902       0.060  51.234  -18.100  0.00  0.00     0.000 OA
ATOM     28   O  SGN A 902      -2.100  50.880  -17.110  0.00  0.00     0.000 OA
ATOM     29   O  SGN A 902      -0.170  51.185  -15.700  0.00  0.00     0.000 OA
ATOM     30   O  SGN A 902      -3.270  55.141  -17.180  0.00  0.00     0.000 O
ATOM     32  HD  SGN A 902      -2.770  55.641  -16.680  0.00  0.00     0.000 HD
ATOM     32   C  SGN A 902      -2.390  56.664  -12.610  0.00  0.00     0.000 C
ATOM     33   O  SGN A 902      -3.260  55.682  -12.060  0.00  0.00     0.000 O
ATOM     34   S  SGN A 902      -4.560  56.167  -10.960  0.00  0.00     0.000 S
ATOM     35   O  SGN A 902      -5.730  55.297  -11.170  0.00  0.00     0.000 OA
ATOM     36   O  SGN A 902      -4.090  56.036   -9.570  0.00  0.00     0.000 OA
ATOM     37   O  SGN A 902      -4.930  57.569  -11.230  0.00  0.00     0.000 OA
BRANCH 18 38
ATOM     38  O4  SGN A 902       0.450  54.866  -15.260  0.00  0.00     0.000 O
BRANCH 38 42
ATOM     39  C1  IDS A 903       4.350  54.677  -15.060  0.00  0.00     0.000 C
ATOM     40  C2  IDS A 903       3.710  54.099  -13.790  0.00  0.00     0.000 C
ATOM     41  C3  IDS A 903       2.260  53.785  -14.090  0.00  0.00     0.000 C
ATOM     42  C4  IDS A 903       1.530  55.107  -14.360  0.00  0.00     0.000 C
ATOM     43  C5  IDS A 903       2.480  56.125  -15.010  0.00  0.00     0.000 C
ATOM     44  O5  IDS A 903       3.380  55.397  -15.830  0.00  0.00     0.000 O
ATOM     45   O  IDS A 903       5.590  53.922  -11.370  0.00  0.00     0.000 OA
ATOM     46   O  IDS A 903       4.070  52.096  -10.980  0.00  0.00     0.000 OA
ATOM     47   O  IDS A 903       4.380  52.879  -13.480  0.00  0.00     0.000 O
ATOM     48   S  IDS A 903       5.100  52.636  -11.890  0.00  0.00     0.000 S
ATOM     49   O  IDS A 903       6.210  51.676  -12.000  0.00  0.00     0.000 OA
ATOM     50   O  IDS A 903       1.680  53.157  -12.960  0.00  0.00     0.000 O
ATOM     52  HD  IDS A 903       2.180  53.657  -12.460  0.00  0.00     0.000 HD
ATOM     52   C  IDS A 903       1.690  57.052  -15.920  0.00  0.00     0.000 C
ATOM     53   O  IDS A 903       0.930  57.881  -15.390  0.00  0.00     0.000 OA
ATOM     54   O  IDS A 903       1.840  56.955  -17.160  0.00  0.00     0.000 OA
BRANCH 39 55
ATOM     55  O4  SGN A 904       5.380  55.575  -14.640  0.00  0.00     0.000 O
BRANCH 55 59
ATOM     56  C1  SGN A 904       8.840  57.211  -16.210  0.00  0.00     0.000 C
ATOM     57  C2  SGN A 904       7.520  57.761  -16.730  0.00  0.00     0.000 C
ATOM     58  C3  SGN A 904       6.390  57.401  -15.780  0.00  0.00     0.000 C
ATOM     59  C4  SGN A 904       6.340  55.887  -15.640  0.00  0.00     0.000 C
ATOM     60  C5  SGN A 904       7.700  55.366  -15.170  0.00  0.00     0.000 C
ATOM     61  O5  SGN A 904       8.720  55.791  -16.080  0.00  0.00     0.000 O
ATOM     62   O  SGN A 904       9.140  57.816  -14.950  0.00  0.00     0.000 OA
ATOM     63   N  SGN A 904       7.620  59.195  -16.840  0.00  0.00     0.000 N
ATOM     65  HD  SGN A 904       8.120  59.695  -16.340  0.00  0.00     0.000 HD
ATOM     65   S  SGN A 904       8.500  59.848  -18.210  0.00  0.00     0.000 S
ATOM     66   O  SGN A 904       9.940  59.886  -17.890  0.00  0.00     0.000 OA
ATOM     67   O  SGN A 904       8.010  61.209  -18.500  0.00  0.00     0.000 OA
ATOM     68   O  SGN A 904       8.270  58.968  -19.370  0.00  0.00     0.000 OA
ATOM     69   O  SGN A 904       5.180  57.881  -16.310  0.00  0.00     0.000 O
ATOM     71  HD  SGN A 904       5.680  58.381  -15.810  0.00  0.00     0.000 HD
ATOM     71   C  SGN A 904       7.690  53.850  -15.180  0.00  0.00     0.000 C
ATOM     72   O  SGN A 904       7.600  53.444  -16.550  0.00  0.00     0.000 O
ATOM     73   S  SGN A 904       7.080  51.809  -16.940  0.00  0.00     0.000 S
ATOM     74   O  SGN A 904       6.710  51.736  -18.360  0.00  0.00     0.000 OA
ATOM     75   O  SGN A 904       8.180  50.875  -16.660  0.00  0.00     0.000 OA
ATOM     76   O  SGN A 904       5.910  51.459  -16.100  0.00  0.00     0.000 OA
ENDBRANCH 55 59
ENDBRANCH 39 55
ENDBRANCH 38 42
ENDBRANCH 18 38
ENDBRANCH 17 21
ENDBRANCH 1 17
TORSDOF 6