ROOT
ATOM      1  C1  IDS A 305     135.950   8.793   70.060  0.00  0.00     0.000 C
ATOM      2  C2  IDS A 305     137.380   8.217   69.820  0.00  0.00     0.000 C
ATOM      3  C3  IDS A 305     137.540   7.793   68.350  0.00  0.00     0.000 C
ATOM      4  C4  IDS A 305     136.500   6.702   67.960  0.00  0.00     0.000 C
ATOM      5  C5  IDS A 305     135.200   6.809   68.830  0.00  0.00     0.000 C
ATOM      6  O5  IDS A 305     134.980   8.191   69.190  0.00  0.00     0.000 O
ATOM      7   O  IDS A 305     138.340   9.215   70.130  0.00  0.00     0.000 O
ATOM      8   S  IDS A 305     139.450   9.178   71.230  0.00  0.00     0.000 S
ATOM      9   O  IDS A 305     140.020  10.497   71.210  0.00  0.00     0.000 OA
ATOM     10   O  IDS A 305     138.810   8.882   72.480  0.00  0.00     0.000 OA
ATOM     11   O  IDS A 305     140.380   8.169   70.810  0.00  0.00     0.000 OA
ATOM     12   O  IDS A 305     138.840   7.267   68.150  0.00  0.00     0.000 O
ATOM     14  HD  IDS A 305     139.340   7.767   68.650  0.00  0.00     0.000 HD
ATOM     14   C  IDS A 305     133.960   6.255   68.140  0.00  0.00     0.000 C
ATOM     15   O  IDS A 305     133.500   5.180   68.470  0.00  0.00     0.000 OA
ATOM     16   O  IDS A 305     133.400   6.865   67.260  0.00  0.00     0.000 OA
ENDROOT
BRANCH 1 17
ATOM     17  O4  SGN A 304     135.630   8.585   71.410  0.00  0.00     0.000 O
BRANCH 17 21
ATOM     18  C1  SGN A 304     133.090  10.517   74.270  0.00  0.00     0.000 C
ATOM     19  C2  SGN A 304     132.780   9.121   73.660  0.00  0.00     0.000 C
ATOM     20  C3  SGN A 304     134.070   8.488   73.120  0.00  0.00     0.000 C
ATOM     21  C4  SGN A 304     134.630   9.423   72.020  0.00  0.00     0.000 C
ATOM     22  C5  SGN A 304     134.930  10.808   72.680  0.00  0.00     0.000 C
ATOM     23  O5  SGN A 304     133.730  11.348   73.310  0.00  0.00     0.000 O
ATOM     24   N  SGN A 304     132.150   8.294   74.710  0.00  0.00     0.000 N
ATOM     26  HD  SGN A 304     132.650   8.794   75.210  0.00  0.00     0.000 HD
ATOM     26   S  SGN A 304     130.530   8.382   74.980  0.00  0.00     0.000 S
ATOM     27   O  SGN A 304     130.420   8.599   76.400  0.00  0.00     0.000 OA
ATOM     28   O  SGN A 304     129.980   9.478   74.220  0.00  0.00     0.000 OA
ATOM     29   O  SGN A 304     130.010   7.108   74.580  0.00  0.00     0.000 OA
ATOM     30   O  SGN A 304     133.780   7.219   72.560  0.00  0.00     0.000 O
ATOM     32  HD  SGN A 304     134.280   7.719   73.060  0.00  0.00     0.000 HD
ATOM     32   S  SGN A 304     134.520  13.136   69.560  0.00  0.00     0.000 S
ATOM     33   O  SGN A 304     135.580  12.553   68.780  0.00  0.00     0.000 OA
ATOM     34   O  SGN A 304     133.230  13.007   68.940  0.00  0.00     0.000 OA
ATOM     35   O  SGN A 304     134.790  14.483   69.970  0.00  0.00     0.000 OA
ATOM     36   C  SGN A 304     135.460  11.887   71.730  0.00  0.00     0.000 C
ATOM     37   O  SGN A 304     134.400  12.304   70.880  0.00  0.00     0.000 O
BRANCH 18 38
ATOM     38  O4  IDS A 303     133.880  10.411   75.440  0.00  0.00     0.000 O
BRANCH 38 42
ATOM     39  C1  IDS A 303     135.470  10.177   78.500  0.00  0.00     0.000 C
ATOM     40  C2  IDS A 303     133.970   9.794   78.400  0.00  0.00     0.000 C
ATOM     41  C3  IDS A 303     133.080  10.796   77.610  0.00  0.00     0.000 C
ATOM     42  C4  IDS A 303     133.790  11.466   76.410  0.00  0.00     0.000 C
ATOM     43  C5  IDS A 303     135.210  11.924   76.840  0.00  0.00     0.000 C
ATOM     44  O5  IDS A 303     135.940  10.782   77.300  0.00  0.00     0.000 O
ATOM     45   O  IDS A 303     133.880   8.522   77.770  0.00  0.00     0.000 O
ATOM     46   S  IDS A 303     133.650   7.121   78.450  0.00  0.00     0.000 S
ATOM     47   O  IDS A 303     134.920   6.441   78.430  0.00  0.00     0.000 OA
ATOM     48   O  IDS A 303     132.670   6.467   77.610  0.00  0.00     0.000 OA
ATOM     49   O  IDS A 303     133.160   7.375   79.780  0.00  0.00     0.000 OA
ATOM     50   O  IDS A 303     132.660  11.817   78.500  0.00  0.00     0.000 O
ATOM     52  HD  IDS A 303     133.160  12.317   79.000  0.00  0.00     0.000 HD
ATOM     52   O  IDS A 303     135.720  13.739   75.370  0.00  0.00     0.000 OA
ATOM     53   O  IDS A 303     136.980  12.087   75.240  0.00  0.00     0.000 OA
ATOM     54   C  IDS A 303     136.020  12.625   75.750  0.00  0.00     0.000 C
BRANCH 39 55
ATOM     55  O4  SGN A 302     135.640  11.010   79.610  0.00  0.00     0.000 O
BRANCH 55 59
ATOM     56  C1  SGN A 302     138.880  12.115   82.120  0.00  0.00     0.000 C
ATOM     57  C2  SGN A 302     138.350  13.058   81.010  0.00  0.00     0.000 C
ATOM     58  C3  SGN A 302     136.940  12.645   80.600  0.00  0.00     0.000 C
ATOM     59  C4  SGN A 302     136.970  11.185   80.100  0.00  0.00     0.000 C
ATOM     60  C5  SGN A 302     137.490  10.296   81.270  0.00  0.00     0.000 C
ATOM     61  O5  SGN A 302     138.800  10.746   81.700  0.00  0.00     0.000 O
ATOM     62   N  SGN A 302     138.370  14.447   81.500  0.00  0.00     0.000 N
ATOM     64  HD  SGN A 302     138.870  14.947   82.000  0.00  0.00     0.000 HD
ATOM     64   S  SGN A 302     139.600  15.460   81.150  0.00  0.00     0.000 S
ATOM     65   O  SGN A 302     139.240  16.683   81.800  0.00  0.00     0.000 OA
ATOM     66   O  SGN A 302     140.810  14.910   81.690  0.00  0.00     0.000 OA
ATOM     67   O  SGN A 302     139.620  15.573   79.720  0.00  0.00     0.000 OA
ATOM     68   O  SGN A 302     136.500  13.508   79.560  0.00  0.00     0.000 O
ATOM     70  HD  SGN A 302     137.000  14.008   80.060  0.00  0.00     0.000 HD
ATOM     70   O  SGN A 302     140.170   7.031   80.880  0.00  0.00     0.000 OA
ATOM     71   C  SGN A 302     137.590   8.796   80.950  0.00  0.00     0.000 C
ATOM     72   O  SGN A 302     138.570   8.546   79.960  0.00  0.00     0.000 O
ATOM     73   S  SGN A 302     139.310   7.188   79.740  0.00  0.00     0.000 S
ATOM     74   O  SGN A 302     138.300   6.168   79.650  0.00  0.00     0.000 OA
ATOM     75   O  SGN A 302     140.030   7.352   78.520  0.00  0.00     0.000 OA
BRANCH 56 76
ATOM     76  O4  IDS A 301     138.240  12.283   83.350  0.00  0.00     0.000 O
BRANCH 76 80
ATOM     77  C1  IDS A 301     139.080  11.386   87.490  0.00  0.00     0.000 C
ATOM     78  C2  IDS A 301     139.400  12.778   86.870  0.00  0.00     0.000 C
ATOM     79  C3  IDS A 301     138.600  12.979   85.560  0.00  0.00     0.000 C
ATOM     80  C4  IDS A 301     138.950  11.867   84.520  0.00  0.00     0.000 C
ATOM     81  C5  IDS A 301     139.610  10.627   85.240  0.00  0.00     0.000 C
ATOM     82  O5  IDS A 301     138.910  10.386   86.480  0.00  0.00     0.000 O
ENDBRANCH 76 80
ENDBRANCH 56 76
ENDBRANCH 55 59
ENDBRANCH 39 55
ENDBRANCH 38 42
ENDBRANCH 18 38
ENDBRANCH 17 21
ENDBRANCH 1 17
TORSDOF 8