ROOT
ATOM      1  C1  IDS A  12     -25.850 -23.954   -4.290  0.00  0.00     0.000 C
ATOM      2  C2  IDS A  12     -25.240 -25.055   -5.160  0.00  0.00     0.000 C
ATOM      3  C3  IDS A  12     -24.680 -26.207   -4.320  0.00  0.00     0.000 C
ATOM      4  C4  IDS A  12     -25.720 -26.683   -3.290  0.00  0.00     0.000 C
ATOM      5  C5  IDS A  12     -26.270 -25.468   -2.510  0.00  0.00     0.000 C
ATOM      6  O5  IDS A  12     -26.790 -24.497   -3.400  0.00  0.00     0.000 O
ATOM      7   S  IDS A  12     -26.530 -25.229   -7.510  0.00  0.00     0.000 S
ATOM      8   O  IDS A  12     -25.280 -25.048   -8.180  0.00  0.00     0.000 OA
ATOM      9   O  IDS A  12     -27.230 -26.370   -8.010  0.00  0.00     0.000 OA
ATOM     10   O  IDS A  12     -27.340 -24.048   -7.480  0.00  0.00     0.000 OA
ATOM     11   O  IDS A  12     -26.240 -25.576   -6.010  0.00  0.00     0.000 O
ATOM     12   O  IDS A  12     -23.560 -25.743   -3.590  0.00  0.00     0.000 O
ATOM     14  HD  IDS A  12     -23.060 -25.243   -3.090  0.00  0.00     0.000 HD
ATOM     14   O  IDS A  12     -26.830 -27.351   -3.880  0.00  0.00     0.000 O
ATOM     16  HD  IDS A  12     -26.330 -26.851   -3.380  0.00  0.00     0.000 HD
ATOM     16   O  IDS A  12     -27.890 -24.914   -0.860  0.00  0.00     0.000 OA
ATOM     17   O  IDS A  12     -27.690 -26.933   -1.250  0.00  0.00     0.000 OA
ATOM     18   C  IDS A  12     -27.340 -25.797   -1.490  0.00  0.00     0.000 C
ENDROOT
BRANCH 1 19
ATOM     19  O4  IDS A  12     -24.800 -23.269   -3.660  0.00  0.00     0.000 O
BRANCH 19 23
ATOM     20  C1  SGN A  11     -24.020 -19.461   -2.180  0.00  0.00     0.000 C
ATOM     21  C2  SGN A  11     -24.680 -20.459   -1.210  0.00  0.00     0.000 C
ATOM     22  C3  SGN A  11     -24.530 -21.891   -1.740  0.00  0.00     0.000 C
ATOM     23  C4  SGN A  11     -25.090 -21.968   -3.170  0.00  0.00     0.000 C
ATOM     24  C5  SGN A  11     -24.360 -20.917   -4.020  0.00  0.00     0.000 C
ATOM     25  O5  SGN A  11     -24.540 -19.623   -3.460  0.00  0.00     0.000 O
ATOM     26   N  SGN A  11     -24.070 -20.306    0.110  0.00  0.00     0.000 N
ATOM     28  HD  SGN A  11     -23.570 -19.806    0.610  0.00  0.00     0.000 HD
ATOM     28   S  SGN A  11     -25.030 -20.103    1.410  0.00  0.00     0.000 S
ATOM     29   O  SGN A  11     -25.660 -18.828    1.240  0.00  0.00     0.000 OA
ATOM     30   O  SGN A  11     -25.960 -21.189    1.460  0.00  0.00     0.000 OA
ATOM     31   O  SGN A  11     -24.140 -20.112    2.540  0.00  0.00     0.000 OA
ATOM     32   O  SGN A  11     -25.260 -22.777   -0.920  0.00  0.00     0.000 O
ATOM     34  HD  SGN A  11     -24.760 -22.277   -0.420  0.00  0.00     0.000 HD
ATOM     34   C  SGN A  11     -24.790 -20.821   -5.490  0.00  0.00     0.000 C
ATOM     35   O  SGN A  11     -26.180 -20.594   -5.530  0.00  0.00     0.000 O
ATOM     36   S  SGN A  11     -27.080 -20.541   -6.810  0.00  0.00     0.000 S
ATOM     37   O  SGN A  11     -26.830 -21.734   -7.560  0.00  0.00     0.000 OA
ATOM     38   O  SGN A  11     -28.420 -20.494   -6.290  0.00  0.00     0.000 OA
ATOM     39   O  SGN A  11     -26.720 -19.343   -7.510  0.00  0.00     0.000 OA
BRANCH 20 40
ATOM     40  O4  SGN A  11     -22.630 -19.543   -2.080  0.00  0.00     0.000 O
BRANCH 40 44
ATOM     41  C1  IDS A  10     -19.410 -18.525   -0.960  0.00  0.00     0.000 C
ATOM     42  C2  IDS A  10     -20.680 -17.981   -0.290  0.00  0.00     0.000 C
ATOM     43  C3  IDS A  10     -21.660 -17.403   -1.320  0.00  0.00     0.000 C
ATOM     44  C4  IDS A  10     -21.890 -18.395   -2.470  0.00  0.00     0.000 C
ATOM     45  C5  IDS A  10     -20.530 -18.873   -3.020  0.00  0.00     0.000 C
ATOM     46  O5  IDS A  10     -19.740 -19.423   -1.980  0.00  0.00     0.000 O
ATOM     47   O  IDS A  10     -21.330 -19.035    0.380  0.00  0.00     0.000 O
ATOM     48   S  IDS A  10     -21.280 -19.399    1.900  0.00  0.00     0.000 S
ATOM     49   O  IDS A  10     -21.270 -18.185    2.660  0.00  0.00     0.000 OA
ATOM     50   O  IDS A  10     -22.480 -20.154    2.130  0.00  0.00     0.000 OA
ATOM     51   O  IDS A  10     -20.100 -20.188    2.070  0.00  0.00     0.000 OA
ATOM     52   O  IDS A  10     -21.090 -16.234   -1.880  0.00  0.00     0.000 O
ATOM     54  HD  IDS A  10     -20.590 -15.734   -1.380  0.00  0.00     0.000 HD
ATOM     54   O  IDS A  10     -21.670 -20.246   -4.620  0.00  0.00     0.000 OA
ATOM     55   C  IDS A  10     -20.620 -19.897   -4.140  0.00  0.00     0.000 C
ATOM     56   O  IDS A  10     -19.610 -20.389   -4.600  0.00  0.00     0.000 OA
BRANCH 41 57
ATOM     57  O4  IDS A  10     -18.640 -17.436   -1.380  0.00  0.00     0.000 O
BRANCH 57 61
ATOM     58  C1  SGN A   9     -14.640 -16.507   -2.040  0.00  0.00     0.000 C
ATOM     59  C2  SGN A   9     -15.410 -17.126   -3.220  0.00  0.00     0.000 C
ATOM     60  C3  SGN A   9     -16.920 -17.031   -2.970  0.00  0.00     0.000 C
ATOM     61  C4  SGN A   9     -17.270 -17.671   -1.620  0.00  0.00     0.000 C
ATOM     62  C5  SGN A   9     -16.420 -16.966   -0.540  0.00  0.00     0.000 C
ATOM     63  O5  SGN A   9     -15.040 -17.096   -0.830  0.00  0.00     0.000 O
ATOM     64   N  SGN A   9     -15.020 -16.443   -4.450  0.00  0.00     0.000 N
ATOM     66  HD  SGN A   9     -14.520 -15.943   -3.950  0.00  0.00     0.000 HD
ATOM     66   S  SGN A   9     -14.530 -17.326   -5.730  0.00  0.00     0.000 S
ATOM     67   O  SGN A   9     -13.300 -17.944   -5.340  0.00  0.00     0.000 OA
ATOM     68   O  SGN A   9     -15.560 -18.272   -6.040  0.00  0.00     0.000 OA
ATOM     69   O  SGN A   9     -14.340 -16.372   -6.790  0.00  0.00     0.000 OA
ATOM     70   O  SGN A   9     -17.610 -17.730   -3.990  0.00  0.00     0.000 O
ATOM     72  HD  SGN A   9     -17.110 -17.230   -3.490  0.00  0.00     0.000 HD
ATOM     72   C  SGN A   9     -16.610 -17.480    0.880  0.00  0.00     0.000 C
ATOM     73   O  SGN A   9     -16.360 -18.868    0.910  0.00  0.00     0.000 O
ATOM     74   S  SGN A   9     -16.530 -19.836    2.120  0.00  0.00     0.000 S
ATOM     75   O  SGN A   9     -17.860 -19.648    2.630  0.00  0.00     0.000 OA
ATOM     76   O  SGN A   9     -16.350 -21.144    1.560  0.00  0.00     0.000 OA
ATOM     77   O  SGN A   9     -15.510 -19.486    3.060  0.00  0.00     0.000 OA
BRANCH 58 78
ATOM     78  O4  SGN A   9     -14.740 -15.113   -2.070  0.00  0.00     0.000 O
BRANCH 78 82
ATOM     79  C1  IDS A   8     -13.620 -11.819   -2.810  0.00  0.00     0.000 C
ATOM     80  C2  IDS A   8     -12.910 -13.040   -3.420  0.00  0.00     0.000 C
ATOM     81  C3  IDS A   8     -12.520 -14.061   -2.340  0.00  0.00     0.000 C
ATOM     82  C4  IDS A   8     -13.720 -14.374   -1.430  0.00  0.00     0.000 C
ATOM     83  C5  IDS A   8     -14.330 -13.055   -0.920  0.00  0.00     0.000 C
ATOM     84  O5  IDS A   8     -14.690 -12.219   -2.010  0.00  0.00     0.000 O
ATOM     85   O  IDS A   8     -12.510 -13.471   -6.380  0.00  0.00     0.000 OA
ATOM     86   O  IDS A   8     -14.510 -14.740   -6.320  0.00  0.00     0.000 OA
ATOM     87   O  IDS A   8     -14.620 -12.366   -6.150  0.00  0.00     0.000 OA
ATOM     88   O  IDS A   8     -13.790 -13.671   -4.330  0.00  0.00     0.000 O
ATOM     89   S  IDS A   8     -13.850 -13.542   -5.880  0.00  0.00     0.000 S
ATOM     90   O  IDS A   8     -11.510 -13.506   -1.540  0.00  0.00     0.000 O
ATOM     92  HD  IDS A   8     -11.010 -13.006   -1.040  0.00  0.00     0.000 HD
ATOM     92   C  IDS A   8     -15.560 -13.223   -0.030  0.00  0.00     0.000 C
ATOM     93   O  IDS A   8     -16.160 -12.254    0.370  0.00  0.00     0.000 OA
ATOM     94   O  IDS A   8     -15.960 -14.309    0.310  0.00  0.00     0.000 OA
BRANCH 79 95
ATOM     95  O4  IDS A   8     -12.650 -11.058   -2.140  0.00  0.00     0.000 O
BRANCH 95 99
ATOM     96  C1  SGN A   7     -11.990  -7.081   -1.120  0.00  0.00     0.000 C
ATOM     97  C2  SGN A   7     -12.810  -7.922   -0.120  0.00  0.00     0.000 C
ATOM     98  C3  SGN A   7     -12.620  -9.417   -0.420  0.00  0.00     0.000 C
ATOM     99  C4  SGN A   7     -12.970  -9.698   -1.890  0.00  0.00     0.000 C
ATOM    100  C5  SGN A   7     -12.090  -8.786   -2.760  0.00  0.00     0.000 C
ATOM    101  O5  SGN A   7     -12.310  -7.425   -2.430  0.00  0.00     0.000 O
ATOM    102   S  SGN A   7     -13.530  -7.186    2.340  0.00  0.00     0.000 S
ATOM    103   O  SGN A   7     -14.090  -5.943    1.890  0.00  0.00     0.000 OA
ATOM    104   O  SGN A   7     -14.480  -8.245    2.400  0.00  0.00     0.000 OA
ATOM    105   O  SGN A   7     -12.810  -7.037    3.570  0.00  0.00     0.000 OA
ATOM    106   N  SGN A   7     -12.390  -7.583    1.230  0.00  0.00     0.000 N
ATOM    108  HD  SGN A   7     -11.890  -7.083    1.730  0.00  0.00     0.000 HD
ATOM    108   O  SGN A   7     -13.490 -10.170    0.390  0.00  0.00     0.000 O
ATOM    110  HD  SGN A   7     -12.990  -9.670    0.890  0.00  0.00     0.000 HD
ATOM    110   O  SGN A   7     -13.670  -8.674   -4.560  0.00  0.00     0.000 O
ATOM    111   S  SGN A   7     -14.370  -8.801   -5.950  0.00  0.00     0.000 S
ATOM    112   O  SGN A   7     -14.050 -10.091   -6.480  0.00  0.00     0.000 OA
ATOM    113   O  SGN A   7     -15.770  -8.667   -5.650  0.00  0.00     0.000 OA
ATOM    114   O  SGN A   7     -13.870  -7.719   -6.750  0.00  0.00     0.000 OA
ATOM    115   C  SGN A   7     -12.300  -8.901   -4.270  0.00  0.00     0.000 C
BRANCH 96 116
ATOM    116  O4  SGN A   7     -10.630  -7.158   -0.800  0.00  0.00     0.000 O
BRANCH 116 120
ATOM    117  C1  IDS A   6      -7.730  -6.134    0.790  0.00  0.00     0.000 C
ATOM    118  C2  IDS A   6      -9.090  -5.499    1.110  0.00  0.00     0.000 C
ATOM    119  C3  IDS A   6      -9.820  -5.009   -0.140  0.00  0.00     0.000 C
ATOM    120  C4  IDS A   6      -9.800  -6.086   -1.240  0.00  0.00     0.000 C
ATOM    121  C5  IDS A   6      -8.370  -6.617   -1.420  0.00  0.00     0.000 C
ATOM    122  O5  IDS A   6      -7.860  -7.111   -0.200  0.00  0.00     0.000 O
ATOM    123   O  IDS A   6      -9.890  -6.484    1.730  0.00  0.00     0.000 O
ATOM    124   S  IDS A   6     -10.540  -6.445    3.150  0.00  0.00     0.000 S
ATOM    125   O  IDS A   6     -11.470  -5.354    3.140  0.00  0.00     0.000 OA
ATOM    126   O  IDS A   6     -11.180  -7.719    3.290  0.00  0.00     0.000 OA
ATOM    127   O  IDS A   6      -9.470  -6.262    4.080  0.00  0.00     0.000 OA
ATOM    128   O  IDS A   6      -9.150  -3.869   -0.640  0.00  0.00     0.000 O
ATOM    130  HD  IDS A   6      -8.650  -3.369   -0.140  0.00  0.00     0.000 HD
ATOM    130   O  IDS A   6      -7.400  -8.537   -2.450  0.00  0.00     0.000 OA
ATOM    131   O  IDS A   6      -8.970  -7.664   -3.470  0.00  0.00     0.000 OA
ATOM    132   C  IDS A   6      -8.240  -7.674   -2.510  0.00  0.00     0.000 C
BRANCH 117 133
ATOM    133  O4  IDS A   6      -6.820  -5.124    0.450  0.00  0.00     0.000 O
BRANCH 133 137
ATOM    134  C1  SGN A   5      -2.740  -4.399    0.650  0.00  0.00     0.000 C
ATOM    135  C2  SGN A   5      -3.240  -5.118   -0.600  0.00  0.00     0.000 C
ATOM    136  C3  SGN A   5      -4.770  -4.957   -0.720  0.00  0.00     0.000 C
ATOM    137  C4  SGN A   5      -5.440  -5.434    0.560  0.00  0.00     0.000 C
ATOM    138  C5  SGN A   5      -4.820  -4.670    1.750  0.00  0.00     0.000 C
ATOM    139  O5  SGN A   5      -3.420  -4.878    1.780  0.00  0.00     0.000 O
ATOM    140   N  SGN A   5      -2.550  -4.584   -1.770  0.00  0.00     0.000 N
ATOM    142  HD  SGN A   5      -2.050  -4.084   -1.270  0.00  0.00     0.000 HD
ATOM    142   S  SGN A   5      -1.260  -5.395   -2.360  0.00  0.00     0.000 S
ATOM    143   O  SGN A   5      -0.370  -5.658   -1.280  0.00  0.00     0.000 OA
ATOM    144   O  SGN A   5      -1.780  -6.584   -2.970  0.00  0.00     0.000 OA
ATOM    145   O  SGN A   5      -0.680  -4.500   -3.330  0.00  0.00     0.000 OA
ATOM    146   O  SGN A   5      -5.230  -5.761   -1.790  0.00  0.00     0.000 O
ATOM    148  HD  SGN A   5      -4.730  -5.261   -1.290  0.00  0.00     0.000 HD
ATOM    148   C  SGN A   5      -5.360  -5.078    3.130  0.00  0.00     0.000 C
ATOM    149   O  SGN A   5      -5.180  -6.468    3.290  0.00  0.00     0.000 O
ATOM    150   S  SGN A   5      -5.630  -7.349    4.500  0.00  0.00     0.000 S
ATOM    151   O  SGN A   5      -7.040  -7.150    4.670  0.00  0.00     0.000 OA
ATOM    152   O  SGN A   5      -5.320  -8.690    4.090  0.00  0.00     0.000 OA
ATOM    153   O  SGN A   5      -4.860  -6.917    5.620  0.00  0.00     0.000 OA
BRANCH 134 154
ATOM    154  O4  SGN A   5      -2.910  -3.016    0.530  0.00  0.00     0.000 O
BRANCH 154 158
ATOM    155  C1  IDS A   4      -1.860   0.185   -0.270  0.00  0.00     0.000 C
ATOM    156  C2  IDS A   4      -0.990  -1.043   -0.580  0.00  0.00     0.000 C
ATOM    157  C3  IDS A   4      -0.780  -1.931    0.640  0.00  0.00     0.000 C
ATOM    158  C4  IDS A   4      -2.110  -2.194    1.360  0.00  0.00     0.000 C
ATOM    159  C5  IDS A   4      -2.840  -0.865    1.580  0.00  0.00     0.000 C
ATOM    160  O5  IDS A   4      -3.040  -0.196    0.350  0.00  0.00     0.000 O
ATOM    161   O  IDS A   4      -1.660  -1.804   -1.570  0.00  0.00     0.000 O
ATOM    162   S  IDS A   4      -1.150  -2.196   -2.990  0.00  0.00     0.000 S
ATOM    163   O  IDS A   4      -0.000  -3.020   -2.790  0.00  0.00     0.000 OA
ATOM    164   O  IDS A   4      -2.240  -2.908   -3.590  0.00  0.00     0.000 OA
ATOM    165   O  IDS A   4      -0.850  -0.970   -3.670  0.00  0.00     0.000 OA
ATOM    166   O  IDS A   4       0.080  -1.271    1.540  0.00  0.00     0.000 O
ATOM    168  HD  IDS A   4       0.580  -0.771    2.040  0.00  0.00     0.000 HD
ATOM    168   O  IDS A   4      -5.080  -0.237    2.130  0.00  0.00     0.000 OA
ATOM    169   O  IDS A   4      -4.330  -1.886    3.140  0.00  0.00     0.000 OA
ATOM    170   C  IDS A   4      -4.170  -1.007    2.330  0.00  0.00     0.000 C
BRANCH 155 171
ATOM    171  O4  IDS A   4      -1.100   1.102    0.460  0.00  0.00     0.000 O
BRANCH 171 175
ATOM    172  C1  SGN A   3      -0.870   5.200    1.040  0.00  0.00     0.000 C
ATOM    173  C2  SGN A   3      -1.840   4.435    1.960  0.00  0.00     0.000 C
ATOM    174  C3  SGN A   3      -1.530   2.933    1.910  0.00  0.00     0.000 C
ATOM    175  C4  SGN A   3      -1.540   2.451    0.450  0.00  0.00     0.000 C
ATOM    176  C5  SGN A   3      -0.570   3.323   -0.350  0.00  0.00     0.000 C
ATOM    177  O5  SGN A   3      -0.940   4.690   -0.250  0.00  0.00     0.000 O
ATOM    178   O  SGN A   3      -4.080   5.345    3.980  0.00  0.00     0.000 OA
ATOM    179   O  SGN A   3      -2.330   6.538    5.080  0.00  0.00     0.000 OA
ATOM    180   N  SGN A   3      -1.740   4.957    3.320  0.00  0.00     0.000 N
ATOM    182  HD  SGN A   3      -1.240   5.457    3.820  0.00  0.00     0.000 HD
ATOM    182   S  SGN A   3      -2.840   6.058    3.830  0.00  0.00     0.000 S
ATOM    183   O  SGN A   3      -2.910   7.101    2.850  0.00  0.00     0.000 OA
ATOM    184   O  SGN A   3      -2.530   2.227    2.620  0.00  0.00     0.000 O
ATOM    186  HD  SGN A   3      -2.030   2.727    3.120  0.00  0.00     0.000 HD
ATOM    186   S  SGN A   3      -2.270   2.776   -3.850  0.00  0.00     0.000 S
ATOM    187   O  SGN A   3      -1.850   1.441   -4.150  0.00  0.00     0.000 OA
ATOM    188   O  SGN A   3      -3.700   2.908   -3.810  0.00  0.00     0.000 OA
ATOM    189   O  SGN A   3      -1.640   3.765   -4.680  0.00  0.00     0.000 OA
ATOM    190   C  SGN A   3      -0.510   2.999   -1.850  0.00  0.00     0.000 C
ATOM    191   O  SGN A   3      -1.820   3.087   -2.380  0.00  0.00     0.000 O
BRANCH 172 192
ATOM    192  O4  SGN A   3       0.420   5.132    1.540  0.00  0.00     0.000 O
BRANCH 192 196
ATOM    193  C1  IDS A   2       3.120   6.285    3.390  0.00  0.00     0.000 C
ATOM    194  C2  IDS A   2       1.750   6.983    3.440  0.00  0.00     0.000 C
ATOM    195  C3  IDS A   2       1.220   7.330    2.050  0.00  0.00     0.000 C
ATOM    196  C4  IDS A   2       1.330   6.128    1.100  0.00  0.00     0.000 C
ATOM    197  C5  IDS A   2       2.750   5.550    1.180  0.00  0.00     0.000 C
ATOM    198  O5  IDS A   2       3.080   5.198    2.510  0.00  0.00     0.000 O
ATOM    199   O  IDS A   2       0.840   6.098    4.060  0.00  0.00     0.000 O
ATOM    200   S  IDS A   2       0.010   6.325    5.370  0.00  0.00     0.000 S
ATOM    201   O  IDS A   2      -0.860   7.424    5.100  0.00  0.00     0.000 OA
ATOM    202   O  IDS A   2      -0.680   5.090    5.570  0.00  0.00     0.000 OA
ATOM    203   O  IDS A   2       0.950   6.599    6.410  0.00  0.00     0.000 OA
ATOM    204   O  IDS A   2       1.980   8.386    1.510  0.00  0.00     0.000 O
ATOM    206  HD  IDS A   2       2.480   8.886    2.010  0.00  0.00     0.000 HD
ATOM    206   O  IDS A   2       2.400   4.273   -0.790  0.00  0.00     0.000 OA
ATOM    207   C  IDS A   2       2.990   4.365    0.250  0.00  0.00     0.000 C
ATOM    208   O  IDS A   2       3.790   3.498    0.530  0.00  0.00     0.000 OA
BRANCH 193 209
ATOM    209  O4  IDS A   2       4.100   7.230    3.060  0.00  0.00     0.000 O
BRANCH 209 213
ATOM    210  C1  SGN A   1       8.140   7.890    3.730  0.00  0.00     0.000 C
ATOM    211  C2  SGN A   1       7.780   7.032    2.510  0.00  0.00     0.000 C
ATOM    212  C3  SGN A   1       6.300   7.207    2.160  0.00  0.00     0.000 C
ATOM    213  C4  SGN A   1       5.440   6.906    3.400  0.00  0.00     0.000 C
ATOM    214  C5  SGN A   1       5.920   7.798    4.550  0.00  0.00     0.000 C
ATOM    215  O5  SGN A   1       7.300   7.566    4.800  0.00  0.00     0.000 O
ATOM    216   O  SGN A   1       8.040   9.254    3.420  0.00  0.00     0.000 OA
ATOM    217   N  SGN A   1       8.640   7.404    1.380  0.00  0.00     0.000 N
ATOM    219  HD  SGN A   1       9.140   7.904    1.880  0.00  0.00     0.000 HD
ATOM    219   S  SGN A   1       9.970   6.501    1.070  0.00  0.00     0.000 S
ATOM    220   O  SGN A   1      10.700   6.354    2.290  0.00  0.00     0.000 OA
ATOM    221   O  SGN A   1       9.490   5.256    0.540  0.00  0.00     0.000 OA
ATOM    222   O  SGN A   1      10.700   7.259    0.100  0.00  0.00     0.000 OA
ATOM    223   O  SGN A   1       5.940   6.289    1.140  0.00  0.00     0.000 O
ATOM    225  HD  SGN A   1       6.440   6.789    1.640  0.00  0.00     0.000 HD
ATOM    225   C  SGN A   1       5.200   7.571    5.890  0.00  0.00     0.000 C
ATOM    226   O  SGN A   1       5.300   6.207    6.230  0.00  0.00     0.000 O
ATOM    227   S  SGN A   1       4.660   5.492    7.470  0.00  0.00     0.000 S
ATOM    228   O  SGN A   1       3.250   5.738    7.420  0.00  0.00     0.000 OA
ATOM    229   O  SGN A   1       4.980   4.105    7.270  0.00  0.00     0.000 OA
ATOM    230   O  SGN A   1       5.290   6.042    8.630  0.00  0.00     0.000 OA
ENDBRANCH 209 213
ENDBRANCH 193 209
ENDBRANCH 192 196
ENDBRANCH 172 192
ENDBRANCH 171 175
ENDBRANCH 155 171
ENDBRANCH 154 158
ENDBRANCH 134 154
ENDBRANCH 133 137
ENDBRANCH 117 133
ENDBRANCH 116 120
ENDBRANCH 96 116
ENDBRANCH 95 99
ENDBRANCH 79 95
ENDBRANCH 78 82
ENDBRANCH 58 78
ENDBRANCH 57 61
ENDBRANCH 41 57
ENDBRANCH 40 44
ENDBRANCH 20 40
ENDBRANCH 19 23
ENDBRANCH 1 19
TORSDOF 22