ROOT
ATOM      1  C1  BDP A2005      -0.110  -7.440   22.610  0.00  0.00     0.000 C
ATOM      2  C2  BDP A2005       0.500  -6.902   21.370  0.00  0.00     0.000 C
ATOM      3  C3  BDP A2005      -0.700  -6.525   20.510  0.00  0.00     0.000 C
ATOM      4  C4  BDP A2005      -2.030  -7.153   20.360  0.00  0.00     0.000 C
ATOM      5  C5  BDP A2005      -2.090  -8.135   21.280  0.00  0.00     0.000 C
ATOM      6  O5  BDP A2005      -0.940  -8.523   22.180  0.00  0.00     0.000 O
ATOM      7   O  BDP A2005       1.310  -5.791   21.730  0.00  0.00     0.000 O
ATOM      9  HD  BDP A2005       1.810  -5.291   22.230  0.00  0.00     0.000 HD
ATOM      9   O  BDP A2005      -0.190  -6.084   19.210  0.00  0.00     0.000 O
ATOM     11  HD  BDP A2005       0.310  -5.584   19.710  0.00  0.00     0.000 HD
ATOM     11   O  BDP A2005      -2.610  -7.244   19.460  0.00  0.00     0.000 O
ATOM     13  HD  BDP A2005      -2.110  -6.744   19.960  0.00  0.00     0.000 HD
ATOM     13   O  BDP A2005      -2.410 -10.054   20.060  0.00  0.00     0.000 OA
ATOM     14   O  BDP A2005      -3.640  -9.638   21.980  0.00  0.00     0.000 OA
ATOM     15   C  BDP A2005      -2.780  -9.373   21.080  0.00  0.00     0.000 C
ENDROOT
BRANCH 1 16
ATOM     16  O3  NAG A2004       0.920  -7.864   23.460  0.00  0.00     0.000 O
BRANCH 16 19
ATOM     17  C1  NAG A2004       1.450  -8.971   27.090  0.00  0.00     0.000 C
ATOM     18  C2  NAG A2004       1.780  -8.336   25.700  0.00  0.00     0.000 C
ATOM     19  C3  NAG A2004       0.570  -8.457   24.770  0.00  0.00     0.000 C
ATOM     20  C4  NAG A2004       0.230  -9.999   24.600  0.00  0.00     0.000 C
ATOM     21  C5  NAG A2004      -0.090 -10.601   26.040  0.00  0.00     0.000 C
ATOM     22  O5  NAG A2004       1.110 -10.420   26.900  0.00  0.00     0.000 O
ATOM     23   N  NAG A2004       2.130  -6.830   25.850  0.00  0.00     0.000 N
ATOM     25  HD  NAG A2004       2.630  -6.330   26.350  0.00  0.00     0.000 HD
ATOM     25   O  NAG A2004       0.830  -6.245   27.790  0.00  0.00     0.000 OA
ATOM     26   C  NAG A2004       1.620  -5.944   26.870  0.00  0.00     0.000 C
ATOM     27   C  NAG A2004       2.150  -4.531   26.730  0.00  0.00     0.000 C
ATOM     28   O  NAG A2004      -0.930 -10.213   23.730  0.00  0.00     0.000 O
ATOM     30  HD  NAG A2004      -0.430  -9.713   24.230  0.00  0.00     0.000 HD
ATOM     30   O  NAG A2004      -0.330 -12.608   24.570  0.00  0.00     0.000 O
ATOM     32  HD  NAG A2004       0.170 -12.108   25.070  0.00  0.00     0.000 HD
ATOM     32   C  NAG A2004      -0.400 -12.106   25.920  0.00  0.00     0.000 C
BRANCH 17 33
ATOM     33  O4  BDP A2003       2.650  -8.869   27.820  0.00  0.00     0.000 O
BRANCH 33 37
ATOM     34  C1  BDP A2003       5.200 -10.217   30.940  0.00  0.00     0.000 C
ATOM     35  C2  BDP A2003       3.690 -10.401   31.330  0.00  0.00     0.000 C
ATOM     36  C3  BDP A2003       2.930 -10.545   29.940  0.00  0.00     0.000 C
ATOM     37  C4  BDP A2003       3.130  -9.160   29.190  0.00  0.00     0.000 C
ATOM     38  C5  BDP A2003       4.650  -8.801   28.850  0.00  0.00     0.000 C
ATOM     39  O5  BDP A2003       5.390  -9.035   30.140  0.00  0.00     0.000 O
ATOM     40   O  BDP A2003       3.560 -11.609   32.120  0.00  0.00     0.000 O
ATOM     42  HD  BDP A2003       4.060 -11.109   32.620  0.00  0.00     0.000 HD
ATOM     42   O  BDP A2003       1.530 -10.750   30.210  0.00  0.00     0.000 O
ATOM     44  HD  BDP A2003       2.030 -10.250   30.710  0.00  0.00     0.000 HD
ATOM     44   C  BDP A2003       4.950  -7.640   28.240  0.00  0.00     0.000 C
ATOM     45   O  BDP A2003       5.260  -7.773   27.040  0.00  0.00     0.000 OA
ATOM     46   O  BDP A2003       4.820  -6.597   28.950  0.00  0.00     0.000 OA
BRANCH 34 47
ATOM     47  O3  NAG A2002       6.130 -10.059   32.010  0.00  0.00     0.000 O
BRANCH 47 50
ATOM     48  C1  NAG A2002       9.870 -10.885   31.480  0.00  0.00     0.000 C
ATOM     49  C2  NAG A2002       8.450 -10.940   32.180  0.00  0.00     0.000 C
ATOM     50  C3  NAG A2002       7.510  -9.982   31.420  0.00  0.00     0.000 C
ATOM     51  C4  NAG A2002       8.090  -8.520   31.480  0.00  0.00     0.000 C
ATOM     52  C5  NAG A2002       9.530  -8.516   30.800  0.00  0.00     0.000 C
ATOM     53  O5  NAG A2002      10.430  -9.471   31.490  0.00  0.00     0.000 O
ATOM     54   O  NAG A2002       7.040 -12.250   34.360  0.00  0.00     0.000 OA
ATOM     55   C  NAG A2002       7.190 -12.844   33.290  0.00  0.00     0.000 C
ATOM     56   C  NAG A2002       6.650 -14.218   33.060  0.00  0.00     0.000 C
ATOM     57   N  NAG A2002       7.860 -12.335   32.150  0.00  0.00     0.000 N
ATOM     59  HD  NAG A2002       8.360 -11.835   32.650  0.00  0.00     0.000 HD
ATOM     59   O  NAG A2002       7.260  -7.578   30.770  0.00  0.00     0.000 O
ATOM     61  HD  NAG A2002       7.760  -7.078   31.270  0.00  0.00     0.000 HD
ATOM     61   O  NAG A2002      10.090  -6.495   32.130  0.00  0.00     0.000 O
ATOM     63  HD  NAG A2002      10.590  -5.995   32.630  0.00  0.00     0.000 HD
ATOM     63   C  NAG A2002      10.180  -7.130   30.840  0.00  0.00     0.000 C
BRANCH 48 64
ATOM     64  O4  BDP A2001      10.760 -11.753   32.140  0.00  0.00     0.000 O
BRANCH 64 68
ATOM     65  C1  BDP A2001      14.820 -13.005   32.450  0.00  0.00     0.000 C
ATOM     66  C2  BDP A2001      14.630 -11.459   32.220  0.00  0.00     0.000 C
ATOM     67  C3  BDP A2001      13.160 -11.142   32.660  0.00  0.00     0.000 C
ATOM     68  C4  BDP A2001      12.170 -11.942   31.740  0.00  0.00     0.000 C
ATOM     69  C5  BDP A2001      12.360 -13.562   31.770  0.00  0.00     0.000 C
ATOM     70  O5  BDP A2001      13.880 -13.770   31.640  0.00  0.00     0.000 O
ATOM     71   O  BDP A2001      15.570 -10.715   33.050  0.00  0.00     0.000 O
ATOM     73  HD  BDP A2001      16.070 -10.215   33.550  0.00  0.00     0.000 HD
ATOM     73   O  BDP A2001      12.910  -9.722   32.500  0.00  0.00     0.000 O
ATOM     75  HD  BDP A2001      13.410  -9.222   33.000  0.00  0.00     0.000 HD
ATOM     75   O  BDP A2001      11.990 -15.560   30.920  0.00  0.00     0.000 OA
ATOM     76   O  BDP A2001      10.710 -13.771   30.290  0.00  0.00     0.000 OA
ATOM     77   C  BDP A2001      11.630 -14.355   30.940  0.00  0.00     0.000 C
BRANCH 65 78
ATOM     78  O3  NAG A2000      16.110 -13.448   32.110  0.00  0.00     0.000 O
BRANCH 78 81
ATOM     79  C1  NAG A2000      18.580 -15.887   33.730  0.00  0.00     0.000 C
ATOM     80  C2  NAG A2000      18.110 -14.542   33.090  0.00  0.00     0.000 C
ATOM     81  C3  NAG A2000      16.590 -14.687   32.730  0.00  0.00     0.000 C
ATOM     82  C4  NAG A2000      16.420 -15.873   31.710  0.00  0.00     0.000 C
ATOM     83  C5  NAG A2000      16.950 -17.212   32.380  0.00  0.00     0.000 C
ATOM     84  O5  NAG A2000      18.390 -17.056   32.770  0.00  0.00     0.000 O
ATOM     85   O  NAG A2000      19.960 -15.807   34.060  0.00  0.00     0.000 OA
ATOM     86   C  NAG A2000      18.540 -12.071   33.700  0.00  0.00     0.000 C
ATOM     87   C  NAG A2000      18.680 -11.146   34.880  0.00  0.00     0.000 C
ATOM     88   N  NAG A2000      18.310 -13.409   34.090  0.00  0.00     0.000 N
ATOM     90  HD  NAG A2000      18.810 -12.909   34.590  0.00  0.00     0.000 HD
ATOM     90   O  NAG A2000      18.610 -11.659   32.530  0.00  0.00     0.000 OA
ATOM     91   O  NAG A2000      15.020 -16.071   31.360  0.00  0.00     0.000 O
ATOM     93  HD  NAG A2000      15.520 -15.571   31.860  0.00  0.00     0.000 HD
ATOM     93   C  NAG A2000      16.840 -18.434   31.420  0.00  0.00     0.000 C
ATOM     94   O  NAG A2000      16.330 -19.635   32.070  0.00  0.00     0.000 O
ATOM     96  HD  NAG A2000      16.830 -19.135   32.570  0.00  0.00     0.000 HD
ENDBRANCH 78 81
ENDBRANCH 65 78
ENDBRANCH 64 68
ENDBRANCH 48 64
ENDBRANCH 47 50
ENDBRANCH 34 47
ENDBRANCH 33 37
ENDBRANCH 17 33
ENDBRANCH 16 19
ENDBRANCH 1 16
TORSDOF 10