ROOT
ATOM      1  C1  BDP A1003       5.150 -10.602   31.190  0.00  0.00     0.000 C
ATOM      2  C2  BDP A1003       3.820 -10.582   31.920  0.00  0.00     0.000 C
ATOM      3  C3  BDP A1003       2.770 -11.090   30.890  0.00  0.00     0.000 C
ATOM      4  C4  BDP A1003       2.750 -10.170   29.670  0.00  0.00     0.000 C
ATOM      5  C5  BDP A1003       3.970 -10.184   29.050  0.00  0.00     0.000 C
ATOM      6  O5  BDP A1003       5.040  -9.817   29.980  0.00  0.00     0.000 O
ATOM      7   O  BDP A1003       3.930 -11.403   33.110  0.00  0.00     0.000 O
ATOM      9  HD  BDP A1003       4.430 -10.903   33.610  0.00  0.00     0.000 HD
ATOM      9   O  BDP A1003       1.490 -11.087   31.570  0.00  0.00     0.000 O
ATOM     11  HD  BDP A1003       1.990 -10.587   32.070  0.00  0.00     0.000 HD
ATOM     11   O  BDP A1003       1.750 -10.547   28.620  0.00  0.00     0.000 O
ATOM     13  HD  BDP A1003       2.250 -10.047   29.120  0.00  0.00     0.000 HD
ATOM     13   O  BDP A1003       3.670  -9.822   26.760  0.00  0.00     0.000 OA
ATOM     14   O  BDP A1003       4.490  -8.127   28.060  0.00  0.00     0.000 OA
ATOM     15   C  BDP A1003       4.050  -9.280   27.830  0.00  0.00     0.000 C
ENDROOT
BRANCH 1 16
ATOM     16  O3  NAG A1002       6.180 -10.136   32.000  0.00  0.00     0.000 O
BRANCH 16 19
ATOM     17  C1  NAG A1002       9.850 -11.019   31.580  0.00  0.00     0.000 C
ATOM     18  C2  NAG A1002       8.430 -11.045   32.240  0.00  0.00     0.000 C
ATOM     19  C3  NAG A1002       7.500 -10.121   31.420  0.00  0.00     0.000 C
ATOM     20  C4  NAG A1002       8.050  -8.666   31.440  0.00  0.00     0.000 C
ATOM     21  C5  NAG A1002       9.480  -8.671   30.800  0.00  0.00     0.000 C
ATOM     22  O5  NAG A1002      10.400  -9.584   31.560  0.00  0.00     0.000 O
ATOM     23   O  NAG A1002       6.830 -12.343   34.350  0.00  0.00     0.000 OA
ATOM     24   C  NAG A1002       7.100 -12.949   33.320  0.00  0.00     0.000 C
ATOM     25   C  NAG A1002       6.610 -14.341   33.070  0.00  0.00     0.000 C
ATOM     26   N  NAG A1002       7.850 -12.448   32.240  0.00  0.00     0.000 N
ATOM     28  HD  NAG A1002       8.350 -11.948   32.740  0.00  0.00     0.000 HD
ATOM     28   O  NAG A1002       7.190  -7.785   30.680  0.00  0.00     0.000 O
ATOM     30  HD  NAG A1002       7.690  -7.285   31.180  0.00  0.00     0.000 HD
ATOM     30   C  NAG A1002      10.110  -7.263   30.810  0.00  0.00     0.000 C
ATOM     31   O  NAG A1002      10.320  -6.751   32.140  0.00  0.00     0.000 O
ATOM     33  HD  NAG A1002      10.820  -6.251   32.640  0.00  0.00     0.000 HD
BRANCH 17 33
ATOM     33  O4  BDP A1001      10.720 -11.851   32.300  0.00  0.00     0.000 O
BRANCH 33 37
ATOM     34  C1  BDP A1001      14.770 -13.048   32.510  0.00  0.00     0.000 C
ATOM     35  C2  BDP A1001      14.520 -11.526   32.340  0.00  0.00     0.000 C
ATOM     36  C3  BDP A1001      13.080 -11.250   32.800  0.00  0.00     0.000 C
ATOM     37  C4  BDP A1001      12.110 -12.038   31.890  0.00  0.00     0.000 C
ATOM     38  C5  BDP A1001      12.230 -13.713   31.790  0.00  0.00     0.000 C
ATOM     39  O5  BDP A1001      13.830 -13.832   31.710  0.00  0.00     0.000 O
ATOM     40   O  BDP A1001      15.470 -10.788   33.160  0.00  0.00     0.000 O
ATOM     42  HD  BDP A1001      15.970 -10.288   33.660  0.00  0.00     0.000 HD
ATOM     42   O  BDP A1001      12.800  -9.838   32.680  0.00  0.00     0.000 O
ATOM     44  HD  BDP A1001      13.300  -9.338   33.180  0.00  0.00     0.000 HD
ATOM     44   O  BDP A1001      10.530 -13.977   30.530  0.00  0.00     0.000 OA
ATOM     45   O  BDP A1001      12.040 -15.624   30.940  0.00  0.00     0.000 OA
ATOM     46   C  BDP A1001      11.570 -14.462   31.060  0.00  0.00     0.000 C
BRANCH 34 47
ATOM     47  O3  NAG A1000      16.060 -13.456   32.140  0.00  0.00     0.000 O
BRANCH 47 50
ATOM     48  C1  NAG A1000      18.540 -15.782   33.870  0.00  0.00     0.000 C
ATOM     49  C2  NAG A1000      18.050 -14.477   33.160  0.00  0.00     0.000 C
ATOM     50  C3  NAG A1000      16.550 -14.664   32.800  0.00  0.00     0.000 C
ATOM     51  C4  NAG A1000      16.420 -15.896   31.820  0.00  0.00     0.000 C
ATOM     52  C5  NAG A1000      16.960 -17.187   32.560  0.00  0.00     0.000 C
ATOM     53  O5  NAG A1000      18.390 -17.009   32.970  0.00  0.00     0.000 O
ENDBRANCH 47 50
ENDBRANCH 34 47
ENDBRANCH 33 37
ENDBRANCH 17 33
ENDBRANCH 16 19
ENDBRANCH 1 16
TORSDOF 6