ROOT
ATOM      1  C1  GCD A 527      35.050   7.328   29.720  0.00  0.00     0.000 C
ATOM      2  C2  GCD A 527      36.180   6.747   30.550  0.00  0.00     0.000 C
ATOM      3  C3  GCD A 527      36.610   7.673   31.710  0.00  0.00     0.000 C
ATOM      4  C4  GCD A 527      35.400   8.314   32.360  0.00  0.00     0.000 C
ATOM      5  C5  GCD A 527      34.160   8.248   31.840  0.00  0.00     0.000 C
ATOM      6  O5  GCD A 527      33.920   7.534   30.580  0.00  0.00     0.000 O
ATOM      7   O  GCD A 527      35.650   5.533   31.070  0.00  0.00     0.000 O
ATOM      9  HD  GCD A 527      36.150   6.033   31.570  0.00  0.00     0.000 HD
ATOM      9   O  GCD A 527      37.510   8.699   31.280  0.00  0.00     0.000 O
ATOM     11  HD  GCD A 527      38.010   9.199   31.780  0.00  0.00     0.000 HD
ATOM     11   O  GCD A 527      33.380   9.458   33.660  0.00  0.00     0.000 OA
ATOM     12   O  GCD A 527      31.940   8.997   32.050  0.00  0.00     0.000 OA
ATOM     13   C  GCD A 527      33.090   8.936   32.560  0.00  0.00     0.000 C
ENDROOT
BRANCH 1 14
ATOM     14  O3  NGK A 526      35.550   8.572   29.170  0.00  0.00     0.000 O
BRANCH 14 17
ATOM     15  C1  NGK A 526      34.560   9.559   25.700  0.00  0.00     0.000 C
ATOM     16  C2  NGK A 526      35.420   8.900   26.780  0.00  0.00     0.000 C
ATOM     17  C3  NGK A 526      34.710   9.016   28.130  0.00  0.00     0.000 C
ATOM     18  C4  NGK A 526      34.470  10.501   28.400  0.00  0.00     0.000 C
ATOM     19  C5  NGK A 526      33.610  11.150   27.310  0.00  0.00     0.000 C
ATOM     20  O5  NGK A 526      34.270  10.905   26.050  0.00  0.00     0.000 O
ATOM     21   O  NGK A 526      33.320   8.898   25.620  0.00  0.00     0.000 OA
ATOM     22   C  NGK A 526      36.940   6.974   26.590  0.00  0.00     0.000 C
ATOM     23   C  NGK A 526      37.130   5.609   25.990  0.00  0.00     0.000 C
ATOM     24   N  NGK A 526      35.730   7.518   26.410  0.00  0.00     0.000 N
ATOM     26  HD  NGK A 526      36.230   8.018   26.910  0.00  0.00     0.000 HD
ATOM     26   O  NGK A 526      37.870   7.546   27.180  0.00  0.00     0.000 OA
ATOM     27   S  NGK A 526      36.400  12.036   29.490  0.00  0.00     0.000 S
ATOM     28   O  NGK A 526      35.670  13.265   29.650  0.00  0.00     0.000 OA
ATOM     29   O  NGK A 526      37.900  12.282   29.090  0.00  0.00     0.000 OA
ATOM     30   O  NGK A 526      36.390  11.174   30.670  0.00  0.00     0.000 OA
ATOM     31   O  NGK A 526      35.760  11.076   28.330  0.00  0.00     0.000 O
ATOM     32   C  NGK A 526      33.400  12.668   27.510  0.00  0.00     0.000 C
ATOM     33   O  NGK A 526      32.420  12.798   28.530  0.00  0.00     0.000 O
ATOM     35  HD  NGK A 526      32.920  13.298   29.030  0.00  0.00     0.000 HD
ENDBRANCH 14 17
ENDBRANCH 1 14
TORSDOF 2