ROOT
ATOM      1  C1  GCD A 525      32.480  13.631   -6.820  0.00  0.00     0.000 C
ATOM      2  C2  GCD A 525      31.850  12.259   -6.550  0.00  0.00     0.000 C
ATOM      3  C3  GCD A 525      30.310  12.310   -6.660  0.00  0.00     0.000 C
ATOM      4  C4  GCD A 525      29.880  13.180   -7.830  0.00  0.00     0.000 C
ATOM      5  C5  GCD A 525      30.710  13.984   -8.510  0.00  0.00     0.000 C
ATOM      6  O5  GCD A 525      32.110  14.071   -8.130  0.00  0.00     0.000 O
ATOM      7   O  GCD A 525      32.370  11.334   -7.510  0.00  0.00     0.000 O
ATOM      9  HD  GCD A 525      32.870  11.834   -7.010  0.00  0.00     0.000 HD
ATOM      9   O  GCD A 525      29.750  12.761   -5.430  0.00  0.00     0.000 O
ATOM     11  HD  GCD A 525      30.250  13.261   -4.930  0.00  0.00     0.000 HD
ATOM     11   C  GCD A 525      30.200  14.760   -9.660  0.00  0.00     0.000 C
ATOM     12   O  GCD A 525      29.070  14.464  -10.080  0.00  0.00     0.000 OA
ATOM     13   O  GCD A 525      30.890  15.667  -10.170  0.00  0.00     0.000 OA
ENDROOT
BRANCH 1 14
ATOM     14  O3  ASG A 523      32.050  14.551   -5.800  0.00  0.00     0.000 O
BRANCH 14 17
ATOM     15  C1  ASG A 523      34.310  17.384   -4.890  0.00  0.00     0.000 C
ATOM     16  C2  ASG A 523      33.700  15.980   -4.810  0.00  0.00     0.000 C
ATOM     17  C3  ASG A 523      32.690  15.818   -5.950  0.00  0.00     0.000 C
ATOM     18  C4  ASG A 523      31.620  16.892   -5.810  0.00  0.00     0.000 C
ATOM     19  C5  ASG A 523      32.280  18.261   -5.820  0.00  0.00     0.000 C
ATOM     20  O5  ASG A 523      33.180  18.267   -4.710  0.00  0.00     0.000 O
ATOM     21   O  ASG A 523      35.060  17.551   -3.730  0.00  0.00     0.000 OA
ATOM     22   O  ASG A 523      34.080  13.736   -3.100  0.00  0.00     0.000 OA
ATOM     23   C  ASG A 523      34.740  13.872   -4.090  0.00  0.00     0.000 C
ATOM     24   C  ASG A 523      35.640  12.740   -4.470  0.00  0.00     0.000 C
ATOM     25   N  ASG A 523      34.720  14.946   -4.890  0.00  0.00     0.000 N
ATOM     27  HD  ASG A 523      35.220  15.446   -4.390  0.00  0.00     0.000 HD
ATOM     27   O  ASG A 523      31.020  16.647   -4.520  0.00  0.00     0.000 O
ATOM     28   O  ASG A 523      28.860  17.585   -5.160  0.00  0.00     0.000 OA
ATOM     29   O  ASG A 523      28.930  16.558   -2.920  0.00  0.00     0.000 OA
ATOM     30   O  ASG A 523      29.040  15.227   -4.990  0.00  0.00     0.000 OA
ATOM     31   S  ASG A 523      29.390  16.483   -4.400  0.00  0.00     0.000 S
ATOM     32   O  ASG A 523      31.870  20.602   -5.610  0.00  0.00     0.000 O
ATOM     34  HD  ASG A 523      32.370  21.102   -5.110  0.00  0.00     0.000 HD
ATOM     34   C  ASG A 523      31.230  19.340   -5.630  0.00  0.00     0.000 C
ENDBRANCH 14 17
ENDBRANCH 1 14
TORSDOF 2