ROOT
ATOM      1  C1  GCD A 519      26.740  23.411   -2.440  0.00  0.00     0.000 C
ATOM      2  C2  GCD A 519      26.060  24.164   -3.590  0.00  0.00     0.000 C
ATOM      3  C3  GCD A 519      27.020  24.531   -4.740  0.00  0.00     0.000 C
ATOM      4  C4  GCD A 519      28.160  25.356   -4.170  0.00  0.00     0.000 C
ATOM      5  C5  GCD A 519      28.610  25.061   -2.940  0.00  0.00     0.000 C
ATOM      6  O5  GCD A 519      28.040  23.943   -2.230  0.00  0.00     0.000 O
ATOM      7   O  GCD A 519      25.000  23.339   -4.040  0.00  0.00     0.000 O
ATOM      9  HD  GCD A 519      25.500  23.839   -3.540  0.00  0.00     0.000 HD
ATOM      9   O  GCD A 519      26.380  25.326   -5.740  0.00  0.00     0.000 O
ATOM     11  HD  GCD A 519      26.880  25.826   -5.240  0.00  0.00     0.000 HD
ATOM     11   C  GCD A 519      29.700  25.764   -2.280  0.00  0.00     0.000 C
ATOM     12   O  GCD A 519      30.520  26.421   -2.970  0.00  0.00     0.000 OA
ATOM     13   O  GCD A 519      29.820  25.637   -1.050  0.00  0.00     0.000 OA
ENDROOT
BRANCH 1 14
ATOM     14  O3  ASG A 517      26.030  23.496   -1.180  0.00  0.00     0.000 O
BRANCH 14 17
ATOM     15  C1  ASG A 517      25.690  21.103    1.550  0.00  0.00     0.000 C
ATOM     16  C2  ASG A 517      25.290  21.868    0.310  0.00  0.00     0.000 C
ATOM     17  C3  ASG A 517      26.510  22.618   -0.170  0.00  0.00     0.000 C
ATOM     18  C4  ASG A 517      27.070  23.424    0.990  0.00  0.00     0.000 C
ATOM     19  C5  ASG A 517      27.420  22.561    2.200  0.00  0.00     0.000 C
ATOM     20  O5  ASG A 517      26.230  21.908    2.590  0.00  0.00     0.000 O
ATOM     21   O  ASG A 517      24.540  20.440    2.020  0.00  0.00     0.000 OA
ATOM     22   C  ASG A 517      23.660  21.093   -1.330  0.00  0.00     0.000 C
ATOM     23   C  ASG A 517      23.310  20.035   -2.380  0.00  0.00     0.000 C
ATOM     24   O  ASG A 517      22.910  22.052   -1.070  0.00  0.00     0.000 OA
ATOM     25   N  ASG A 517      24.820  20.883   -0.680  0.00  0.00     0.000 N
ATOM     27  HD  ASG A 517      25.320  21.383   -0.180  0.00  0.00     0.000 HD
ATOM     27   O  ASG A 517      26.040  24.336    1.420  0.00  0.00     0.000 O
ATOM     28   O  ASG A 517      25.770  26.634    2.490  0.00  0.00     0.000 OA
ATOM     29   O  ASG A 517      24.920  26.286    0.220  0.00  0.00     0.000 OA
ATOM     30   O  ASG A 517      27.360  26.249    0.710  0.00  0.00     0.000 OA
ATOM     31   S  ASG A 517      26.060  25.956    1.230  0.00  0.00     0.000 S
ATOM     32   O  ASG A 517      29.220  23.951    3.100  0.00  0.00     0.000 O
ATOM     34  HD  ASG A 517      29.720  24.451    3.600  0.00  0.00     0.000 HD
ATOM     34   C  ASG A 517      27.970  23.355    3.390  0.00  0.00     0.000 C
ENDBRANCH 14 17
ENDBRANCH 1 14
TORSDOF 2