ROOT
ATOM      1  C1  GCD A 611      32.460  29.337   -8.040  0.00  0.00     0.000 C
ATOM      2  C2  GCD A 611      33.770  29.011   -8.700  0.00  0.00     0.000 C
ATOM      3  C3  GCD A 611      34.680  30.268   -8.420  0.00  0.00     0.000 C
ATOM      4  C4  GCD A 611      34.050  31.710   -8.470  0.00  0.00     0.000 C
ATOM      5  C5  GCD A 611      32.710  31.796   -8.670  0.00  0.00     0.000 C
ATOM      6  O5  GCD A 611      31.950  30.538   -8.810  0.00  0.00     0.000 O
ATOM      7   O  GCD A 611      34.370  27.851   -8.050  0.00  0.00     0.000 O
ATOM      9  HD  GCD A 611      34.870  28.351   -7.550  0.00  0.00     0.000 HD
ATOM      9   O  GCD A 611      35.880  29.977   -9.150  0.00  0.00     0.000 O
ATOM     11  HD  GCD A 611      36.380  30.477   -8.650  0.00  0.00     0.000 HD
ATOM     11   O  GCD A 611      31.560  33.626   -7.640  0.00  0.00     0.000 OA
ATOM     12   C  GCD A 611      31.860  33.040   -8.750  0.00  0.00     0.000 C
ATOM     13   O  GCD A 611      31.490  33.292   -9.960  0.00  0.00     0.000 OA
ENDROOT
BRANCH 1 14
ATOM     14  O3  ASG A 610      31.530  28.340   -8.280  0.00  0.00     0.000 O
BRANCH 14 17
ATOM     15  C1  ASG A 610      29.100  26.854   -5.820  0.00  0.00     0.000 C
ATOM     16  C2  ASG A 610      30.260  26.891   -6.800  0.00  0.00     0.000 C
ATOM     17  C3  ASG A 610      30.450  28.307   -7.330  0.00  0.00     0.000 C
ATOM     18  C4  ASG A 610      29.130  28.807   -7.950  0.00  0.00     0.000 C
ATOM     19  C5  ASG A 610      28.060  28.753   -6.850  0.00  0.00     0.000 C
ATOM     20  O5  ASG A 610      27.900  27.388   -6.420  0.00  0.00     0.000 O
ATOM     21   O  ASG A 610      31.810  24.776   -7.600  0.00  0.00     0.000 OA
ATOM     22   C  ASG A 610      32.120  25.374   -6.570  0.00  0.00     0.000 C
ATOM     23   C  ASG A 610      33.300  24.889   -5.720  0.00  0.00     0.000 C
ATOM     24   N  ASG A 610      31.470  26.449   -6.130  0.00  0.00     0.000 N
ATOM     26  HD  ASG A 610      31.970  26.949   -5.630  0.00  0.00     0.000 HD
ATOM     26   O  ASG A 610      27.500  29.527  -10.520  0.00  0.00     0.000 OA
ATOM     27   O  ASG A 610      29.890  29.410  -10.790  0.00  0.00     0.000 OA
ATOM     28   O  ASG A 610      28.480  27.583  -11.530  0.00  0.00     0.000 OA
ATOM     29   S  ASG A 610      28.670  28.631  -10.510  0.00  0.00     0.000 S
ATOM     30   O  ASG A 610      28.740  27.962   -9.050  0.00  0.00     0.000 O
ATOM     31   O  ASG A 610      25.820  29.389   -6.180  0.00  0.00     0.000 O
ATOM     33  HD  ASG A 610      26.320  29.889   -5.680  0.00  0.00     0.000 HD
ATOM     33   C  ASG A 610      26.700  29.253   -7.290  0.00  0.00     0.000 C
BRANCH 15 34
ATOM     34  O4  BDP A 609      28.860  25.542   -5.460  0.00  0.00     0.000 O
BRANCH 34 38
ATOM     35  C1  BDP A 609      26.820  23.598   -2.400  0.00  0.00     0.000 C
ATOM     36  C2  BDP A 609      26.000  23.979   -3.640  0.00  0.00     0.000 C
ATOM     37  C3  BDP A 609      26.930  24.303   -4.800  0.00  0.00     0.000 C
ATOM     38  C4  BDP A 609      27.940  25.344   -4.380  0.00  0.00     0.000 C
ATOM     39  C5  BDP A 609      28.700  24.882   -3.140  0.00  0.00     0.000 C
ATOM     40  O5  BDP A 609      27.760  24.637   -2.070  0.00  0.00     0.000 O
ATOM     41   O  BDP A 609      25.160  22.892   -3.990  0.00  0.00     0.000 O
ATOM     43  HD  BDP A 609      25.660  23.392   -3.490  0.00  0.00     0.000 HD
ATOM     43   O  BDP A 609      26.170  24.823   -5.890  0.00  0.00     0.000 O
ATOM     45  HD  BDP A 609      26.670  25.323   -5.390  0.00  0.00     0.000 HD
ATOM     45   O  BDP A 609      30.900  25.582   -2.630  0.00  0.00     0.000 OA
ATOM     46   O  BDP A 609      29.250  27.030   -2.290  0.00  0.00     0.000 OA
ATOM     47   C  BDP A 609      29.690  25.915   -2.640  0.00  0.00     0.000 C
BRANCH 35 48
ATOM     48  O3  ASG A 608      25.960  23.433   -1.320  0.00  0.00     0.000 O
BRANCH 48 51
ATOM     49  C1  ASG A 608      25.790  20.903    1.480  0.00  0.00     0.000 C
ATOM     50  C2  ASG A 608      25.300  21.735    0.280  0.00  0.00     0.000 C
ATOM     51  C3  ASG A 608      26.440  22.592   -0.250  0.00  0.00     0.000 C
ATOM     52  C4  ASG A 608      27.000  23.439    0.860  0.00  0.00     0.000 C
ATOM     53  C5  ASG A 608      27.500  22.532    1.980  0.00  0.00     0.000 C
ATOM     54  O5  ASG A 608      26.400  21.741    2.480  0.00  0.00     0.000 O
ATOM     55   O  ASG A 608      24.710  20.263    2.060  0.00  0.00     0.000 OA
ATOM     56   O  ASG A 608      22.930  22.008   -1.110  0.00  0.00     0.000 OA
ATOM     57   C  ASG A 608      23.690  21.084   -1.400  0.00  0.00     0.000 C
ATOM     58   C  ASG A 608      23.310  20.138   -2.540  0.00  0.00     0.000 C
ATOM     59   N  ASG A 608      24.830  20.844   -0.760  0.00  0.00     0.000 N
ATOM     61  HD  ASG A 608      25.330  21.344   -0.260  0.00  0.00     0.000 HD
ATOM     61   O  ASG A 608      26.010  24.304    1.440  0.00  0.00     0.000 O
ATOM     62   O  ASG A 608      25.730  26.515    2.440  0.00  0.00     0.000 OA
ATOM     63   O  ASG A 608      27.380  26.211    0.710  0.00  0.00     0.000 OA
ATOM     64   O  ASG A 608      25.110  26.261    0.040  0.00  0.00     0.000 OA
ATOM     65   S  ASG A 608      26.020  25.870    1.140  0.00  0.00     0.000 S
ATOM     66   C  ASG A 608      28.030  23.326    3.180  0.00  0.00     0.000 C
ATOM     67   O  ASG A 608      29.290  23.944    2.900  0.00  0.00     0.000 O
ATOM     69  HD  ASG A 608      29.790  24.444    3.400  0.00  0.00     0.000 HD
ENDBRANCH 48 51
ENDBRANCH 35 48
ENDBRANCH 34 38
ENDBRANCH 15 34
ENDBRANCH 14 17
ENDBRANCH 1 14
TORSDOF 6