ROOT
ATOM      1  C1  GCD A 900       5.160  41.469   29.960  0.00  0.00     0.000 C
ATOM      2  C2  GCD A 900       3.890  41.512   30.740  0.00  0.00     0.000 C
ATOM      3  C3  GCD A 900       2.760  40.988   29.780  0.00  0.00     0.000 C
ATOM      4  C4  GCD A 900       2.790  41.395   28.290  0.00  0.00     0.000 C
ATOM      5  C5  GCD A 900       3.850  42.120   27.830  0.00  0.00     0.000 C
ATOM      6  O5  GCD A 900       4.970  42.455   28.800  0.00  0.00     0.000 O
ATOM      7   O  GCD A 900       4.000  40.587   31.880  0.00  0.00     0.000 O
ATOM      9  HD  GCD A 900       4.500  41.087   32.380  0.00  0.00     0.000 HD
ATOM      9   O  GCD A 900       1.560  41.161   30.530  0.00  0.00     0.000 O
ATOM     11  HD  GCD A 900       2.060  41.661   31.030  0.00  0.00     0.000 HD
ATOM     11   C  GCD A 900       4.020  42.597   26.420  0.00  0.00     0.000 C
ATOM     12   O  GCD A 900       3.200  42.143   25.540  0.00  0.00     0.000 OA
ATOM     13   O  GCD A 900       5.000  43.412   26.310  0.00  0.00     0.000 OA
ENDROOT
BRANCH 1 14
ATOM     14  O3  NGA A 901       6.240  41.952   30.720  0.00  0.00     0.000 O
BRANCH 14 17
ATOM     15  C1  NGA A 901       9.800  40.836   30.400  0.00  0.00     0.000 C
ATOM     16  C2  NGA A 901       8.380  40.920   30.980  0.00  0.00     0.000 C
ATOM     17  C3  NGA A 901       7.570  41.943   30.160  0.00  0.00     0.000 C
ATOM     18  C4  NGA A 901       8.240  43.362   30.200  0.00  0.00     0.000 C
ATOM     19  C5  NGA A 901       9.650  43.239   29.630  0.00  0.00     0.000 C
ATOM     20  O5  NGA A 901      10.440  42.199   30.430  0.00  0.00     0.000 O
ATOM     21   O  NGA A 901      10.570  39.910   31.150  0.00  0.00     0.000 OA
ATOM     22   O  NGA A 901       7.180  39.694   33.270  0.00  0.00     0.000 OA
ATOM     23   C  NGA A 901       7.080  39.100   32.160  0.00  0.00     0.000 C
ATOM     24   C  NGA A 901       6.340  37.787   31.990  0.00  0.00     0.000 C
ATOM     25   N  NGA A 901       7.640  39.587   30.940  0.00  0.00     0.000 N
ATOM     27  HD  NGA A 901       8.140  40.087   31.440  0.00  0.00     0.000 HD
ATOM     27   O  NGA A 901       8.130  43.813   31.500  0.00  0.00     0.000 O
ATOM     29  HD  NGA A 901       8.630  44.313   32.000  0.00  0.00     0.000 HD
ATOM     29   O  NGA A 901      11.780  44.505   29.340  0.00  0.00     0.000 O
ATOM     31  HD  NGA A 901      12.280  45.005   29.840  0.00  0.00     0.000 HD
ATOM     31   C  NGA A 901      10.360  44.592   29.680  0.00  0.00     0.000 C
ENDBRANCH 14 17
ENDBRANCH 1 14
TORSDOF 2