ROOT
ATOM      1  C1  SGN A 246      44.760  34.746   15.190  0.00  0.00     0.000 C
ATOM      2  C2  SGN A 246      45.510  36.146   15.130  0.00  0.00     0.000 C
ATOM      3  C3  SGN A 246      46.910  36.007   15.760  0.00  0.00     0.000 C
ATOM      4  C4  SGN A 246      46.730  35.579   17.200  0.00  0.00     0.000 C
ATOM      5  C5  SGN A 246      45.960  34.188   17.220  0.00  0.00     0.000 C
ATOM      6  O5  SGN A 246      44.650  34.315   16.550  0.00  0.00     0.000 O
ATOM      7   N  SGN A 246      45.640  36.590   13.740  0.00  0.00     0.000 N
ATOM      9  HD  SGN A 246      46.140  37.090   14.240  0.00  0.00     0.000 HD
ATOM      9   S  SGN A 246      46.250  38.076   13.410  0.00  0.00     0.000 S
ATOM     10   O  SGN A 246      47.090  37.943   12.230  0.00  0.00     0.000 OA
ATOM     11   O  SGN A 246      45.130  38.967   13.200  0.00  0.00     0.000 OA
ATOM     12   O  SGN A 246      47.020  38.423   14.580  0.00  0.00     0.000 OA
ATOM     13   O  SGN A 246      47.580  37.246   15.740  0.00  0.00     0.000 O
ATOM     15  HD  SGN A 246      48.080  37.746   16.240  0.00  0.00     0.000 HD
ATOM     15   O  IDS A 245      48.030  35.490   17.780  0.00  0.00     0.000 O
ATOM     16   O  SGN A 246      43.290  32.827   20.190  0.00  0.00     0.000 OA
ATOM     17   O  SGN A 246      42.960  35.170   20.620  0.00  0.00     0.000 OA
ATOM     18   O  SGN A 246      42.570  34.289   18.430  0.00  0.00     0.000 OA
ATOM     19   C  SGN A 246      45.680  33.633   18.640  0.00  0.00     0.000 C
ATOM     20   O  SGN A 246      44.780  34.475   19.300  0.00  0.00     0.000 O
ATOM     21   S  SGN A 246      43.310  34.162   19.660  0.00  0.00     0.000 S
ENDROOT
BRANCH 1 22
ATOM     22  O4  SGN A 246      45.490  33.762   14.490  0.00  0.00     0.000 O
BRANCH 22 26
ATOM     23  C1  IDS A 247      47.450  32.359   11.620  0.00  0.00     0.000 C
ATOM     24  C2  IDS A 247      46.460  33.389   11.050  0.00  0.00     0.000 C
ATOM     25  C3  IDS A 247      45.780  34.174   12.160  0.00  0.00     0.000 C
ATOM     26  C4  IDS A 247      45.070  33.284   13.220  0.00  0.00     0.000 C
ATOM     27  C5  IDS A 247      45.600  31.799   13.110  0.00  0.00     0.000 C
ATOM     28  O5  IDS A 247      47.040  31.838   12.890  0.00  0.00     0.000 O
ATOM     29   O  IDS A 247      47.160  34.334   10.220  0.00  0.00     0.000 O
ATOM     30   S  IDS A 247      46.610  35.169    8.940  0.00  0.00     0.000 S
ATOM     31   O  IDS A 247      45.490  34.381    8.460  0.00  0.00     0.000 OA
ATOM     32   O  IDS A 247      46.190  36.472    9.410  0.00  0.00     0.000 OA
ATOM     33   O  IDS A 247      47.700  35.235    7.960  0.00  0.00     0.000 OA
ATOM     34   O  IDS A 247      44.840  35.075   11.590  0.00  0.00     0.000 O
ATOM     36  HD  IDS A 247      45.340  35.575   12.090  0.00  0.00     0.000 HD
ATOM     36   C  IDS A 247      45.310  30.945   14.360  0.00  0.00     0.000 C
ATOM     37   O  IDS A 247      44.170  30.697   14.700  0.00  0.00     0.000 OA
ATOM     38   O  IDS A 247      46.220  30.506   15.040  0.00  0.00     0.000 OA
BRANCH 23 39
ATOM     39  O4  IDS A 247      47.550  31.364   10.670  0.00  0.00     0.000 O
BRANCH 39 43
ATOM     40  C1  SGN A 248      49.930  28.031    9.840  0.00  0.00     0.000 C
ATOM     41  C2  SGN A 248      48.870  27.886   10.980  0.00  0.00     0.000 C
ATOM     42  C3  SGN A 248      47.830  29.003   10.800  0.00  0.00     0.000 C
ATOM     43  C4  SGN A 248      48.540  30.358   10.860  0.00  0.00     0.000 C
ATOM     44  C5  SGN A 248      49.600  30.406    9.710  0.00  0.00     0.000 C
ATOM     45  O5  SGN A 248      50.560  29.309    9.890  0.00  0.00     0.000 O
ATOM     46   O  SGN A 248      48.320  24.111   11.180  0.00  0.00     0.000 OA
ATOM     47   O  SGN A 248      49.890  25.517   12.360  0.00  0.00     0.000 OA
ATOM     48   N  SGN A 248      48.190  26.564   10.890  0.00  0.00     0.000 N
ATOM     50  HD  SGN A 248      48.690  27.064   11.390  0.00  0.00     0.000 HD
ATOM     50   S  SGN A 248      48.510  25.336   11.950  0.00  0.00     0.000 S
ATOM     51   O  SGN A 248      47.610  25.463   13.070  0.00  0.00     0.000 OA
ATOM     52   O  SGN A 248      46.870  28.924   11.840  0.00  0.00     0.000 O
ATOM     54  HD  SGN A 248      47.370  29.424   12.340  0.00  0.00     0.000 HD
ATOM     54   S  SGN A 248      50.760  31.568   12.260  0.00  0.00     0.000 S
ATOM     55   O  SGN A 248      51.920  32.222   12.820  0.00  0.00     0.000 OA
ATOM     56   O  SGN A 248      49.560  31.755   13.050  0.00  0.00     0.000 OA
ATOM     57   O  SGN A 248      50.990  30.180   11.910  0.00  0.00     0.000 OA
ATOM     58   C  SGN A 248      50.400  31.717    9.650  0.00  0.00     0.000 C
ATOM     59   O  SGN A 248      50.430  32.292   10.920  0.00  0.00     0.000 O
BRANCH 40 60
ATOM     60  O4  SGN A 248      49.270  27.963    8.640  0.00  0.00     0.000 O
BRANCH 60 64
ATOM     61  C1  IDS A 249      47.460  27.129    5.590  0.00  0.00     0.000 C
ATOM     62  C2  IDS A 249      47.600  25.745    6.280  0.00  0.00     0.000 C
ATOM     63  C3  IDS A 249      48.170  25.872    7.670  0.00  0.00     0.000 C
ATOM     64  C4  IDS A 249      49.500  26.662    7.740  0.00  0.00     0.000 C
ATOM     65  C5  IDS A 249      49.700  27.476    6.410  0.00  0.00     0.000 C
ATOM     66  O5  IDS A 249      48.420  28.061    6.070  0.00  0.00     0.000 O
ATOM     67   O  IDS A 249      46.300  25.114    6.410  0.00  0.00     0.000 O
ATOM     68   S  IDS A 249      45.060  25.583    7.330  0.00  0.00     0.000 S
ATOM     69   O  IDS A 249      45.450  25.212    8.680  0.00  0.00     0.000 OA
ATOM     70   O  IDS A 249      44.920  27.011    7.190  0.00  0.00     0.000 OA
ATOM     71   O  IDS A 249      43.910  24.849    6.860  0.00  0.00     0.000 OA
ATOM     72   O  IDS A 249      48.780  24.789    8.240  0.00  0.00     0.000 O
ATOM     74  HD  IDS A 249      49.280  25.289    8.740  0.00  0.00     0.000 HD
ATOM     74   O  IDS A 249      51.930  28.370    6.220  0.00  0.00     0.000 OA
ATOM     75   O  IDS A 249      50.470  29.716    6.890  0.00  0.00     0.000 OA
ATOM     76   C  IDS A 249      50.760  28.593    6.520  0.00  0.00     0.000 C
BRANCH 61 77
ATOM     77  O4  IDS A 249      47.660  26.875    4.250  0.00  0.00     0.000 O
BRANCH 77 81
ATOM     78  C1  SGN A 250      46.290  28.061    0.530  0.00  0.00     0.000 C
ATOM     79  C2  SGN A 250      47.530  28.875    1.070  0.00  0.00     0.000 C
ATOM     80  C3  SGN A 250      48.150  27.980    2.190  0.00  0.00     0.000 C
ATOM     81  C4  SGN A 250      47.090  27.739    3.290  0.00  0.00     0.000 C
ATOM     82  C5  SGN A 250      45.830  27.055    2.660  0.00  0.00     0.000 C
ATOM     83  O5  SGN A 250      45.310  27.912    1.570  0.00  0.00     0.000 O
ATOM     84   S  SGN A 250      49.570  30.378   -0.030  0.00  0.00     0.000 S
ATOM     85   O  SGN A 250      49.280  31.228    1.100  0.00  0.00     0.000 OA
ATOM     86   O  SGN A 250      50.940  29.823   -0.030  0.00  0.00     0.000 OA
ATOM     87   O  SGN A 250      49.250  31.049   -1.290  0.00  0.00     0.000 OA
ATOM     88   N  SGN A 250      48.550  29.065   -0.000  0.00  0.00     0.000 N
ATOM     90  HD  SGN A 250      49.050  29.565    0.500  0.00  0.00     0.000 HD
ATOM     90   O  SGN A 250      49.280  28.627    2.750  0.00  0.00     0.000 O
ATOM     92  HD  SGN A 250      49.780  29.127    3.250  0.00  0.00     0.000 HD
ATOM     92   O  SGN A 250      44.030  25.638    3.350  0.00  0.00     0.000 O
ATOM     93   S  SGN A 250      42.550  25.298    3.720  0.00  0.00     0.000 S
ATOM     94   O  SGN A 250      42.070  26.352    4.600  0.00  0.00     0.000 OA
ATOM     95   O  SGN A 250      41.860  25.272    2.460  0.00  0.00     0.000 OA
ATOM     96   O  SGN A 250      42.590  23.987    4.350  0.00  0.00     0.000 OA
ATOM     97   C  SGN A 250      44.710  26.812    3.680  0.00  0.00     0.000 C
BRANCH 78 98
ATOM     98  O4  SGN A 250      46.750  26.741    0.310  0.00  0.00     0.000 O
BRANCH 98 102
ATOM     99  C1  IDS A 251      48.780  23.699   -0.550  0.00  0.00     0.000 C
ATOM    100  C2  IDS A 251      49.230  24.888   -1.440  0.00  0.00     0.000 C
ATOM    101  C3  IDS A 251      48.610  26.216   -0.990  0.00  0.00     0.000 C
ATOM    102  C4  IDS A 251      47.060  26.208   -0.900  0.00  0.00     0.000 C
ATOM    103  C5  IDS A 251      46.570  24.734   -0.780  0.00  0.00     0.000 C
ATOM    104  O5  IDS A 251      47.520  24.019    0.070  0.00  0.00     0.000 O
ATOM    105   O  IDS A 251      50.650  25.062   -1.360  0.00  0.00     0.000 O
ATOM    106   S  IDS A 251      51.600  25.078   -0.040  0.00  0.00     0.000 S
ATOM    107   O  IDS A 251      51.300  26.339    0.610  0.00  0.00     0.000 OA
ATOM    108   O  IDS A 251      51.260  23.933    0.770  0.00  0.00     0.000 OA
ATOM    109   O  IDS A 251      52.950  25.021   -0.570  0.00  0.00     0.000 OA
ATOM    110   O  IDS A 251      49.020  27.248   -1.870  0.00  0.00     0.000 O
ATOM    112  HD  IDS A 251      49.520  27.748   -1.370  0.00  0.00     0.000 HD
ATOM    112   O  IDS A 251      44.950  24.210    0.960  0.00  0.00     0.000 OA
ATOM    113   O  IDS A 251      44.130  24.899   -0.830  0.00  0.00     0.000 OA
ATOM    114   C  IDS A 251      45.120  24.606   -0.180  0.00  0.00     0.000 C
BRANCH 99 115
ATOM    115  O4  IDS A 251      48.680  22.564   -1.430  0.00  0.00     0.000 O
BRANCH 115 119
ATOM    116  C1  SGN A 252      46.820  18.740   -1.410  0.00  0.00     0.000 C
ATOM    117  C2  SGN A 252      46.410  19.701   -0.270  0.00  0.00     0.000 C
ATOM    118  C3  SGN A 252      46.750  21.122   -0.710  0.00  0.00     0.000 C
ATOM    119  C4  SGN A 252      48.300  21.217   -0.950  0.00  0.00     0.000 C
ATOM    120  C5  SGN A 252      48.670  20.188   -2.060  0.00  0.00     0.000 C
ATOM    121  O5  SGN A 252      48.240  18.862   -1.680  0.00  0.00     0.000 O
ATOM    122   O  SGN A 252      46.050  19.057   -2.590  0.00  0.00     0.000 OA
ATOM    123   S  SGN A 252      44.440  18.626    1.250  0.00  0.00     0.000 S
ATOM    124   O  SGN A 252      45.190  17.384    1.200  0.00  0.00     0.000 OA
ATOM    125   O  SGN A 252      44.710  19.396    2.450  0.00  0.00     0.000 OA
ATOM    126   O  SGN A 252      43.010  18.412    1.040  0.00  0.00     0.000 OA
ATOM    127   N  SGN A 252      44.950  19.567   -0.010  0.00  0.00     0.000 N
ATOM    129  HD  SGN A 252      45.450  20.067    0.490  0.00  0.00     0.000 HD
ATOM    129   O  SGN A 252      46.380  21.981    0.300  0.00  0.00     0.000 O
ATOM    131  HD  SGN A 252      46.880  22.481    0.800  0.00  0.00     0.000 HD
ATOM    131   O  SGN A 252      50.910  20.483   -1.240  0.00  0.00     0.000 O
ATOM    132   S  SGN A 252      52.190  19.776   -0.620  0.00  0.00     0.000 S
ATOM    133   O  SGN A 252      53.360  20.440   -1.180  0.00  0.00     0.000 OA
ATOM    134   O  SGN A 252      52.040  19.982    0.810  0.00  0.00     0.000 OA
ATOM    135   O  SGN A 252      52.100  18.368   -1.000  0.00  0.00     0.000 OA
ATOM    136   C  SGN A 252      50.170  20.095   -2.380  0.00  0.00     0.000 C
ENDBRANCH 115 119
ENDBRANCH 99 115
ENDBRANCH 98 102
ENDBRANCH 78 98
ENDBRANCH 77 81
ENDBRANCH 61 77
ENDBRANCH 60 64
ENDBRANCH 40 60
ENDBRANCH 39 43
ENDBRANCH 23 39
ENDBRANCH 22 26
ENDBRANCH 1 22
TORSDOF 12