ROOT
ATOM      1  C1  IDS B 245      47.080   2.145   91.650  0.00  0.00     0.000 C
ATOM      2  C2  IDS B 245      46.830   0.999   90.710  0.00  0.00     0.000 C
ATOM      3  C3  IDS B 245      47.140   1.502   89.330  0.00  0.00     0.000 C
ATOM      4  C4  IDS B 245      46.270   2.738   88.960  0.00  0.00     0.000 C
ATOM      5  C5  IDS B 245      45.410   3.344   90.180  0.00  0.00     0.000 C
ATOM      6  O5  IDS B 245      46.050   3.143   91.540  0.00  0.00     0.000 O
ATOM      7   O  IDS B 245      47.710  -0.083   91.000  0.00  0.00     0.000 O
ATOM      8   S  IDS B 245      47.490  -1.638   90.870  0.00  0.00     0.000 S
ATOM      9   O  IDS B 245      48.820  -2.162   90.610  0.00  0.00     0.000 OA
ATOM     10   O  IDS B 245      46.950  -2.113   92.140  0.00  0.00     0.000 OA
ATOM     11   O  IDS B 245      46.590  -1.824   89.760  0.00  0.00     0.000 OA
ATOM     12   O  IDS B 245      46.900   0.481   88.390  0.00  0.00     0.000 O
ATOM     14  HD  IDS B 245      47.400   0.981   88.890  0.00  0.00     0.000 HD
ATOM     14   C  IDS B 245      45.080   4.850   89.980  0.00  0.00     0.000 C
ATOM     15   O  IDS B 245      45.800   5.564   89.290  0.00  0.00     0.000 OA
ATOM     16   O  IDS B 245      44.080   5.361   90.480  0.00  0.00     0.000 OA
ENDROOT
BRANCH 1 17
ATOM     17  O4  IDS B 245      47.250   1.641   92.950  0.00  0.00     0.000 O
BRANCH 17 21
ATOM     18  C1  SGN B 246      50.030   2.347   96.070  0.00  0.00     0.000 C
ATOM     19  C2  SGN B 246      49.210   3.563   95.440  0.00  0.00     0.000 C
ATOM     20  C3  SGN B 246      47.960   3.031   94.730  0.00  0.00     0.000 C
ATOM     21  C4  SGN B 246      48.420   2.099   93.630  0.00  0.00     0.000 C
ATOM     22  C5  SGN B 246      49.230   0.905   94.290  0.00  0.00     0.000 C
ATOM     23  O5  SGN B 246      50.390   1.432   95.030  0.00  0.00     0.000 O
ATOM     24   N  SGN B 246      48.820   4.500   96.500  0.00  0.00     0.000 N
ATOM     26  HD  SGN B 246      49.320   5.000   97.000  0.00  0.00     0.000 HD
ATOM     26   S  SGN B 246      48.530   6.077   96.130  0.00  0.00     0.000 S
ATOM     27   O  SGN B 246      48.470   6.187   94.690  0.00  0.00     0.000 OA
ATOM     28   O  SGN B 246      47.290   6.444   96.790  0.00  0.00     0.000 OA
ATOM     29   O  SGN B 246      49.670   6.782   96.680  0.00  0.00     0.000 OA
ATOM     30   O  SGN B 246      47.240   4.098   94.150  0.00  0.00     0.000 O
ATOM     32  HD  SGN B 246      47.740   4.598   94.650  0.00  0.00     0.000 HD
ATOM     32   C  SGN B 246      49.790  -0.126   93.280  0.00  0.00     0.000 C
ATOM     33   O  SGN B 246      50.760   0.483   92.470  0.00  0.00     0.000 O
ATOM     34   S  SGN B 246      52.280   0.221   92.490  0.00  0.00     0.000 S
ATOM     35   O  SGN B 246      52.450  -1.205   92.550  0.00  0.00     0.000 OA
ATOM     36   O  SGN B 246      52.750   0.801   91.260  0.00  0.00     0.000 OA
ATOM     37   O  SGN B 246      52.780   0.902   93.650  0.00  0.00     0.000 OA
BRANCH 18 38
ATOM     38  O4  SGN B 246      49.220   1.641   96.990  0.00  0.00     0.000 O
BRANCH 38 42
ATOM     39  C1  IDS B 247      46.850   1.271   99.870  0.00  0.00     0.000 C
ATOM     40  C2  IDS B 247      47.680   2.546  100.100  0.00  0.00     0.000 C
ATOM     41  C3  IDS B 247      48.510   2.902   98.890  0.00  0.00     0.000 C
ATOM     42  C4  IDS B 247      49.430   1.757   98.400  0.00  0.00     0.000 C
ATOM     43  C5  IDS B 247      48.960   0.382   99.020  0.00  0.00     0.000 C
ATOM     44  O5  IDS B 247      47.510   0.344   99.000  0.00  0.00     0.000 O
ATOM     45   O  IDS B 247      46.800   3.658  100.370  0.00  0.00     0.000 O
ATOM     46   S  IDS B 247      47.130   5.250  100.370  0.00  0.00     0.000 S
ATOM     47   O  IDS B 247      46.760   5.692  101.700  0.00  0.00     0.000 OA
ATOM     48   O  IDS B 247      48.550   5.398  100.120  0.00  0.00     0.000 OA
ATOM     49   O  IDS B 247      46.310   5.859   99.320  0.00  0.00     0.000 OA
ATOM     50   O  IDS B 247      49.290   4.056   99.170  0.00  0.00     0.000 O
ATOM     52  HD  IDS B 247      49.790   4.556   99.670  0.00  0.00     0.000 HD
ATOM     52   O  IDS B 247      50.700  -1.090   98.250  0.00  0.00     0.000 OA
ATOM     53   O  IDS B 247      48.760  -1.626   97.710  0.00  0.00     0.000 OA
ATOM     54   C  IDS B 247      49.500  -0.856   98.290  0.00  0.00     0.000 C
BRANCH 39 55
ATOM     55  O4  IDS B 247      46.620   0.727  101.120  0.00  0.00     0.000 O
BRANCH 55 59
ATOM     56  C1  SGN B 248      44.280  -2.258  102.870  0.00  0.00     0.000 C
ATOM     57  C2  SGN B 248      45.540  -2.719  102.060  0.00  0.00     0.000 C
ATOM     58  C3  SGN B 248      46.480  -1.511  101.920  0.00  0.00     0.000 C
ATOM     59  C4  SGN B 248      45.730  -0.379  101.210  0.00  0.00     0.000 C
ATOM     60  C5  SGN B 248      44.480  -0.001  102.070  0.00  0.00     0.000 C
ATOM     61  O5  SGN B 248      43.620  -1.182  102.210  0.00  0.00     0.000 O
ATOM     62   N  SGN B 248      46.250  -3.812  102.780  0.00  0.00     0.000 N
ATOM     64  HD  SGN B 248      46.750  -3.312  103.280  0.00  0.00     0.000 HD
ATOM     64   S  SGN B 248      45.970  -5.406  102.430  0.00  0.00     0.000 S
ATOM     65   O  SGN B 248      46.780  -5.766  101.290  0.00  0.00     0.000 OA
ATOM     66   O  SGN B 248      46.330  -6.124  103.650  0.00  0.00     0.000 OA
ATOM     67   O  SGN B 248      44.560  -5.514  102.130  0.00  0.00     0.000 OA
ATOM     68   O  SGN B 248      47.610  -1.883  101.150  0.00  0.00     0.000 O
ATOM     70  HD  SGN B 248      48.110  -1.383  101.650  0.00  0.00     0.000 HD
ATOM     70   C  SGN B 248      43.620   1.127  101.470  0.00  0.00     0.000 C
ATOM     71   O  SGN B 248      42.970   0.655  100.330  0.00  0.00     0.000 O
ATOM     72   S  SGN B 248      41.960   1.437   99.460  0.00  0.00     0.000 S
ATOM     73   O  SGN B 248      42.450   1.393   98.090  0.00  0.00     0.000 OA
ATOM     74   O  SGN B 248      40.710   0.715   99.640  0.00  0.00     0.000 OA
ATOM     75   O  SGN B 248      41.920   2.781  100.000  0.00  0.00     0.000 OA
BRANCH 56 76
ATOM     76  O4  SGN B 248      44.720  -1.774  104.080  0.00  0.00     0.000 O
BRANCH 76 80
ATOM     77  C1  IDS B 249      45.990  -1.131  107.430  0.00  0.00     0.000 C
ATOM     78  C2  IDS B 249      45.830  -2.667  107.270  0.00  0.00     0.000 C
ATOM     79  C3  IDS B 249      45.490  -3.052  105.850  0.00  0.00     0.000 C
ATOM     80  C4  IDS B 249      44.260  -2.294  105.270  0.00  0.00     0.000 C
ATOM     81  C5  IDS B 249      43.950  -1.038  106.160  0.00  0.00     0.000 C
ATOM     82  O5  IDS B 249      45.210  -0.415  106.480  0.00  0.00     0.000 O
ATOM     83   O  IDS B 249      48.720  -1.928  106.460  0.00  0.00     0.000 OA
ATOM     84   O  IDS B 249      49.450  -3.844  107.730  0.00  0.00     0.000 OA
ATOM     85   O  IDS B 249      47.050  -3.345  107.620  0.00  0.00     0.000 O
ATOM     86   S  IDS B 249      48.460  -3.301  106.820  0.00  0.00     0.000 S
ATOM     87   O  IDS B 249      48.250  -4.137  105.650  0.00  0.00     0.000 OA
ATOM     88   O  IDS B 249      45.280  -4.456  105.800  0.00  0.00     0.000 O
ATOM     90  HD  IDS B 249      45.780  -3.956  106.300  0.00  0.00     0.000 HD
ATOM     90   O  IDS B 249      41.960   0.316  105.980  0.00  0.00     0.000 OA
ATOM     91   O  IDS B 249      43.340   0.525  104.420  0.00  0.00     0.000 OA
ATOM     92   C  IDS B 249      43.030  -0.005  105.470  0.00  0.00     0.000 C
BRANCH 77 93
ATOM     93  O4  IDS B 249      45.560  -0.861  108.710  0.00  0.00     0.000 O
BRANCH 93 97
ATOM     94  C1  SGN B 250      46.190   1.839  111.780  0.00  0.00     0.000 C
ATOM     95  C2  SGN B 250      45.040   2.229  110.780  0.00  0.00     0.000 C
ATOM     96  C3  SGN B 250      44.670   0.906  110.050  0.00  0.00     0.000 C
ATOM     97  C4  SGN B 250      45.910   0.372  109.310  0.00  0.00     0.000 C
ATOM     98  C5  SGN B 250      47.070   0.136  110.340  0.00  0.00     0.000 C
ATOM     99  O5  SGN B 250      47.350   1.403  111.050  0.00  0.00     0.000 O
ATOM    100   N  SGN B 250      43.840   2.715  111.540  0.00  0.00     0.000 N
ATOM    102  HD  SGN B 250      44.340   3.215  112.040  0.00  0.00     0.000 HD
ATOM    102   S  SGN B 250      43.570   4.334  111.830  0.00  0.00     0.000 S
ATOM    103   O  SGN B 250      43.820   5.082  110.610  0.00  0.00     0.000 OA
ATOM    104   O  SGN B 250      42.190   4.431  112.320  0.00  0.00     0.000 OA
ATOM    105   O  SGN B 250      44.540   4.667  112.870  0.00  0.00     0.000 OA
ATOM    106   O  SGN B 250      43.630   1.146  109.120  0.00  0.00     0.000 O
ATOM    108  HD  SGN B 250      44.130   1.646  109.620  0.00  0.00     0.000 HD
ATOM    108   C  SGN B 250      48.360  -0.360  109.680  0.00  0.00     0.000 C
ATOM    109   O  SGN B 250      49.360   0.610  109.820  0.00  0.00     0.000 O
ATOM    110   S  SGN B 250      50.600   0.798  108.890  0.00  0.00     0.000 S
ATOM    111   O  SGN B 250      50.220   0.310  107.570  0.00  0.00     0.000 OA
ATOM    112   O  SGN B 250      50.850   2.215  108.910  0.00  0.00     0.000 OA
ATOM    113   O  SGN B 250      51.680   0.041  109.510  0.00  0.00     0.000 OA
BRANCH 94 114
ATOM    114  O4  SGN B 250      45.760   0.668  112.450  0.00  0.00     0.000 O
BRANCH 114 118
ATOM    115  C1  IDS B 251      43.750  -1.994  114.180  0.00  0.00     0.000 C
ATOM    116  C2  IDS B 251      43.090  -0.608  114.430  0.00  0.00     0.000 C
ATOM    117  C3  IDS B 251      43.730   0.497  113.580  0.00  0.00     0.000 C
ATOM    118  C4  IDS B 251      45.260   0.629  113.730  0.00  0.00     0.000 C
ATOM    119  C5  IDS B 251      45.830  -0.709  114.290  0.00  0.00     0.000 C
ATOM    120  O5  IDS B 251      45.080  -1.808  113.660  0.00  0.00     0.000 O
ATOM    121   S  IDS B 251      40.960  -1.519  112.940  0.00  0.00     0.000 S
ATOM    122   O  IDS B 251      41.290  -0.860  111.680  0.00  0.00     0.000 OA
ATOM    123   O  IDS B 251      41.480  -2.876  112.990  0.00  0.00     0.000 OA
ATOM    124   O  IDS B 251      39.560  -1.432  113.260  0.00  0.00     0.000 OA
ATOM    125   O  IDS B 251      41.700  -0.643  114.080  0.00  0.00     0.000 O
ATOM    126   O  IDS B 251      43.120   1.737  113.890  0.00  0.00     0.000 O
ATOM    128  HD  IDS B 251      43.620   2.237  114.390  0.00  0.00     0.000 HD
ATOM    128   O  IDS B 251      48.210  -0.288  114.640  0.00  0.00     0.000 OA
ATOM    129   C  IDS B 251      47.360  -0.900  114.010  0.00  0.00     0.000 C
ATOM    130   O  IDS B 251      47.750  -1.673  113.130  0.00  0.00     0.000 OA
BRANCH 115 131
ATOM    131  O4  IDS B 251      43.740  -2.672  115.440  0.00  0.00     0.000 O
BRANCH 131 135
ATOM    132  C1  SGN B 252      45.730  -5.959  117.260  0.00  0.00     0.000 C
ATOM    133  C2  SGN B 252      46.300  -5.483  115.900  0.00  0.00     0.000 C
ATOM    134  C3  SGN B 252      45.820  -4.053  115.670  0.00  0.00     0.000 C
ATOM    135  C4  SGN B 252      44.250  -4.048  115.610  0.00  0.00     0.000 C
ATOM    136  C5  SGN B 252      43.730  -4.591  116.990  0.00  0.00     0.000 C
ATOM    137  O5  SGN B 252      44.280  -5.902  117.240  0.00  0.00     0.000 O
ATOM    138   O  SGN B 252      46.270  -5.117  118.310  0.00  0.00     0.000 OA
ATOM    139   N  SGN B 252      47.790  -5.542  115.930  0.00  0.00     0.000 N
ATOM    141  HD  SGN B 252      48.290  -5.042  116.430  0.00  0.00     0.000 HD
ATOM    141   S  SGN B 252      48.560  -6.845  115.240  0.00  0.00     0.000 S
ATOM    142   O  SGN B 252      47.860  -8.042  115.690  0.00  0.00     0.000 OA
ATOM    143   O  SGN B 252      48.480  -6.644  113.810  0.00  0.00     0.000 OA
ATOM    144   O  SGN B 252      49.930  -6.796  115.730  0.00  0.00     0.000 OA
ATOM    145   O  SGN B 252      46.330  -3.631  114.450  0.00  0.00     0.000 O
ATOM    147  HD  SGN B 252      46.830  -3.131  114.950  0.00  0.00     0.000 HD
ATOM    147   C  SGN B 252      42.210  -4.719  117.090  0.00  0.00     0.000 C
ATOM    148   O  SGN B 252      41.670  -4.897  115.800  0.00  0.00     0.000 O
ATOM    149   S  SGN B 252      40.150  -4.903  115.370  0.00  0.00     0.000 S
ATOM    150   O  SGN B 252      39.800  -3.552  114.950  0.00  0.00     0.000 OA
ATOM    151   O  SGN B 252      40.090  -5.871  114.280  0.00  0.00     0.000 OA
ATOM    152   O  SGN B 252      39.400  -5.342  116.550  0.00  0.00     0.000 OA
ENDBRANCH 131 135
ENDBRANCH 115 131
ENDBRANCH 114 118
ENDBRANCH 94 114
ENDBRANCH 93 97
ENDBRANCH 77 93
ENDBRANCH 76 80
ENDBRANCH 56 76
ENDBRANCH 55 59
ENDBRANCH 39 55
ENDBRANCH 38 42
ENDBRANCH 18 38
ENDBRANCH 17 21
ENDBRANCH 1 17
TORSDOF 14