ROOT
ATOM      1  C1  GAD A 809      -3.720  37.246   76.380  0.00  0.00     0.000 C
ATOM      2  C2  GAD A 809      -4.100  36.394   75.160  0.00  0.00     0.000 C
ATOM      3  C3  GAD A 809      -5.610  36.427   74.920  0.00  0.00     0.000 C
ATOM      4  C4  GAD A 809      -6.390  37.137   76.070  0.00  0.00     0.000 C
ATOM      5  C5  GAD A 809      -5.900  37.095   77.320  0.00  0.00     0.000 C
ATOM      6  O5  GAD A 809      -4.540  36.637   77.410  0.00  0.00     0.000 O
ATOM      7   O  GAD A 809      -3.520  36.881   73.980  0.00  0.00     0.000 O
ATOM      9  HD  GAD A 809      -3.020  37.381   74.480  0.00  0.00     0.000 HD
ATOM      9   O  GAD A 809      -6.080  35.126   74.520  0.00  0.00     0.000 O
ATOM     11  HD  GAD A 809      -5.580  35.626   75.020  0.00  0.00     0.000 HD
ATOM     11   C  GAD A 809      -6.580  37.539   78.630  0.00  0.00     0.000 C
ATOM     12   O  GAD A 809      -7.730  38.089   78.690  0.00  0.00     0.000 OA
ATOM     13   O  GAD A 809      -5.850  37.256   79.620  0.00  0.00     0.000 OA
ENDROOT
BRANCH 1 14
ATOM     14  O3  NAG A 810      -2.420  37.590   76.430  0.00  0.00     0.000 O
BRANCH 14 17
ATOM     15  C1  NAG A 810      -0.500  40.676   77.470  0.00  0.00     0.000 C
ATOM     16  C2  NAG A 810      -1.030  39.585   76.510  0.00  0.00     0.000 C
ATOM     17  C3  NAG A 810      -1.800  38.560   77.300  0.00  0.00     0.000 C
ATOM     18  C4  NAG A 810      -0.820  37.949   78.290  0.00  0.00     0.000 C
ATOM     19  C5  NAG A 810      -0.200  39.050   79.180  0.00  0.00     0.000 C
ATOM     20  O5  NAG A 810       0.410  40.061   78.390  0.00  0.00     0.000 O
ATOM     21   O  NAG A 810       0.130  41.727   76.740  0.00  0.00     0.000 OA
ATOM     22   O  NAG A 810      -0.820  39.309   73.770  0.00  0.00     0.000 OA
ATOM     23   C  NAG A 810      -1.820  39.844   74.220  0.00  0.00     0.000 C
ATOM     24   C  NAG A 810      -3.010  40.247   73.370  0.00  0.00     0.000 C
ATOM     25   N  NAG A 810      -1.910  40.128   75.510  0.00  0.00     0.000 N
ATOM     27  HD  NAG A 810      -1.410  40.628   76.010  0.00  0.00     0.000 HD
ATOM     27   O  NAG A 810      -1.440  36.909   79.050  0.00  0.00     0.000 O
ATOM     29  HD  NAG A 810      -0.940  37.409   79.550  0.00  0.00     0.000 HD
ATOM     29   C  NAG A 810       0.840  38.351   80.050  0.00  0.00     0.000 C
ATOM     30   O  NAG A 810       1.470  39.369   80.750  0.00  0.00     0.000 O
ATOM     32  HD  NAG A 810       1.970  39.869   81.250  0.00  0.00     0.000 HD
ENDBRANCH 14 17
ENDBRANCH 1 14
TORSDOF 2