ROOT
ATOM      1  C1  GAD A 809      -3.880  38.001   75.860  0.00  0.00     0.000 C
ATOM      2  C2  GAD A 809      -4.230  37.028   74.670  0.00  0.00     0.000 C
ATOM      3  C3  GAD A 809      -5.750  36.922   74.550  0.00  0.00     0.000 C
ATOM      4  C4  GAD A 809      -6.500  37.241   75.870  0.00  0.00     0.000 C
ATOM      5  C5  GAD A 809      -5.940  37.604   77.070  0.00  0.00     0.000 C
ATOM      6  O5  GAD A 809      -4.520  37.724   77.110  0.00  0.00     0.000 O
ATOM      7   O  GAD A 809      -3.600  37.272   73.320  0.00  0.00     0.000 O
ATOM      9  HD  GAD A 809      -3.100  37.772   73.820  0.00  0.00     0.000 HD
ATOM      9   O  GAD A 809      -6.170  35.590   74.150  0.00  0.00     0.000 O
ATOM     11  HD  GAD A 809      -5.670  36.090   74.650  0.00  0.00     0.000 HD
ATOM     11   C  GAD A 809      -6.620  37.950   78.350  0.00  0.00     0.000 C
ATOM     12   O  GAD A 809      -7.790  38.393   78.240  0.00  0.00     0.000 OA
ATOM     13   O  GAD A 809      -5.930  37.885   79.450  0.00  0.00     0.000 OA
ENDROOT
BRANCH 1 14
ATOM     14  O3  ASG A 810      -2.480  37.996   76.170  0.00  0.00     0.000 O
BRANCH 14 17
ATOM     15  C1  ASG A 810      -0.700  40.985   77.590  0.00  0.00     0.000 C
ATOM     16  C2  ASG A 810      -1.190  39.989   76.520  0.00  0.00     0.000 C
ATOM     17  C3  ASG A 810      -2.050  38.928   77.190  0.00  0.00     0.000 C
ATOM     18  C4  ASG A 810      -1.210  38.198   78.230  0.00  0.00     0.000 C
ATOM     19  C5  ASG A 810      -0.580  39.198   79.220  0.00  0.00     0.000 C
ATOM     20  O5  ASG A 810       0.100  40.246   78.520  0.00  0.00     0.000 O
ATOM     21   O  ASG A 810      -0.850  39.616   73.790  0.00  0.00     0.000 OA
ATOM     22   C  ASG A 810      -1.860  40.193   74.190  0.00  0.00     0.000 C
ATOM     23   C  ASG A 810      -3.060  40.567   73.320  0.00  0.00     0.000 C
ATOM     24   N  ASG A 810      -2.000  40.551   75.480  0.00  0.00     0.000 N
ATOM     26  HD  ASG A 810      -1.500  41.051   75.980  0.00  0.00     0.000 HD
ATOM     26   O  ASG A 810      -0.230  37.447   77.490  0.00  0.00     0.000 O
ATOM     27   O  ASG A 810      -0.260  35.520   78.970  0.00  0.00     0.000 OA
ATOM     28   O  ASG A 810      -1.140  35.143   76.690  0.00  0.00     0.000 OA
ATOM     29   O  ASG A 810       1.320  35.418   77.080  0.00  0.00     0.000 OA
ATOM     30   S  ASG A 810      -0.150  35.811   77.540  0.00  0.00     0.000 S
ATOM     31   O  ASG A 810       1.070  39.662   80.770  0.00  0.00     0.000 O
ATOM     33  HD  ASG A 810       1.570  40.162   81.270  0.00  0.00     0.000 HD
ATOM     33   C  ASG A 810       0.410  38.555   80.180  0.00  0.00     0.000 C
BRANCH 15 34
ATOM     34  O4  ASG A 810       0.150  41.954   76.980  0.00  0.00     0.000 O
BRANCH 34 38
ATOM     35  C1  GCT A 811       2.950  44.864   77.840  0.00  0.00     0.000 C
ATOM     36  C2  GCT A 811       2.620  44.120   79.130  0.00  0.00     0.000 C
ATOM     37  C3  GCT A 811       2.040  42.781   78.750  0.00  0.00     0.000 C
ATOM     38  C4  GCT A 811       0.720  43.108   78.040  0.00  0.00     0.000 C
ATOM     39  C5  GCT A 811       0.760  44.170   76.930  0.00  0.00     0.000 C
ATOM     40  O5  GCT A 811       2.050  44.722   76.750  0.00  0.00     0.000 O
ATOM     41   O  GCT A 811       3.870  43.903   79.710  0.00  0.00     0.000 O
ATOM     43  HD  GCT A 811       4.370  44.403   80.210  0.00  0.00     0.000 HD
ATOM     43   O  GCT A 811       1.780  41.939   79.860  0.00  0.00     0.000 O
ATOM     45  HD  GCT A 811       2.280  42.439   80.360  0.00  0.00     0.000 HD
ATOM     45   C  GCT A 811      -0.340  45.221   77.010  0.00  0.00     0.000 C
ATOM     46   O  GCT A 811      -0.160  46.375   76.520  0.00  0.00     0.000 OA
ATOM     47   O  GCT A 811      -1.410  44.859   77.540  0.00  0.00     0.000 OA
BRANCH 35 48
ATOM     48  O3  ASG A 812       3.190  46.237   78.140  0.00  0.00     0.000 O
BRANCH 48 51
ATOM     49  C1  ASG A 812       6.100  48.318   77.140  0.00  0.00     0.000 C
ATOM     50  C2  ASG A 812       5.140  47.516   78.010  0.00  0.00     0.000 C
ATOM     51  C3  ASG A 812       4.080  46.817   77.180  0.00  0.00     0.000 C
ATOM     52  C4  ASG A 812       3.410  47.863   76.310  0.00  0.00     0.000 C
ATOM     53  C5  ASG A 812       4.490  48.575   75.470  0.00  0.00     0.000 C
ATOM     54  O5  ASG A 812       5.390  49.269   76.370  0.00  0.00     0.000 O
ATOM     55   O  ASG A 812       7.000  48.999   78.020  0.00  0.00     0.000 OA
ATOM     56   C  ASG A 812       6.230  46.534   79.980  0.00  0.00     0.000 C
ATOM     57   C  ASG A 812       6.720  45.185   80.500  0.00  0.00     0.000 C
ATOM     58   O  ASG A 812       6.160  47.619   80.620  0.00  0.00     0.000 OA
ATOM     59   N  ASG A 812       5.890  46.486   78.680  0.00  0.00     0.000 N
ATOM     61  HD  ASG A 812       6.390  46.986   79.180  0.00  0.00     0.000 HD
ATOM     61   O  ASG A 812       2.730  48.746   77.210  0.00  0.00     0.000 O
ATOM     62   O  ASG A 812       0.730  49.094   75.720  0.00  0.00     0.000 OA
ATOM     63   O  ASG A 812       0.580  49.891   77.890  0.00  0.00     0.000 OA
ATOM     64   O  ASG A 812       2.050  51.121   76.290  0.00  0.00     0.000 OA
ATOM     65   S  ASG A 812       1.460  49.696   76.790  0.00  0.00     0.000 S
ATOM     66   C  ASG A 812       3.970  49.517   74.410  0.00  0.00     0.000 C
ATOM     67   O  ASG A 812       5.060  49.915   73.570  0.00  0.00     0.000 O
ATOM     69  HD  ASG A 812       5.560  50.415   74.070  0.00  0.00     0.000 HD
ENDBRANCH 48 51
ENDBRANCH 35 48
ENDBRANCH 34 38
ENDBRANCH 15 34
ENDBRANCH 14 17
ENDBRANCH 1 14
TORSDOF 6