ROOT
ATOM      1  C1  GAD A 809      -3.450  37.714   75.020  0.00  0.00     0.000 C
ATOM      2  C2  GAD A 809      -3.850  36.768   73.860  0.00  0.00     0.000 C
ATOM      3  C3  GAD A 809      -5.370  36.728   73.740  0.00  0.00     0.000 C
ATOM      4  C4  GAD A 809      -6.090  37.262   75.010  0.00  0.00     0.000 C
ATOM      5  C5  GAD A 809      -5.500  37.433   76.210  0.00  0.00     0.000 C
ATOM      6  O5  GAD A 809      -4.070  37.329   76.260  0.00  0.00     0.000 O
ATOM      7   O  GAD A 809      -3.240  37.071   72.570  0.00  0.00     0.000 O
ATOM      9  HD  GAD A 809      -2.740  37.571   73.070  0.00  0.00     0.000 HD
ATOM      9   O  GAD A 809      -5.830  35.401   73.370  0.00  0.00     0.000 O
ATOM     11  HD  GAD A 809      -5.330  35.901   73.870  0.00  0.00     0.000 HD
ATOM     11   C  GAD A 809      -6.200  37.800   77.530  0.00  0.00     0.000 C
ATOM     12   O  GAD A 809      -7.420  38.023   77.460  0.00  0.00     0.000 OA
ATOM     13   O  GAD A 809      -5.490  37.886   78.590  0.00  0.00     0.000 OA
ENDROOT
BRANCH 1 14
ATOM     14  O3  ASG A 810      -2.190  37.768   75.450  0.00  0.00     0.000 O
BRANCH 14 17
ATOM     15  C1  ASG A 810      -0.320  40.762   76.790  0.00  0.00     0.000 C
ATOM     16  C2  ASG A 810      -0.820  39.762   75.730  0.00  0.00     0.000 C
ATOM     17  C3  ASG A 810      -1.660  38.703   76.410  0.00  0.00     0.000 C
ATOM     18  C4  ASG A 810      -0.810  37.975   77.420  0.00  0.00     0.000 C
ATOM     19  C5  ASG A 810      -0.160  38.972   78.400  0.00  0.00     0.000 C
ATOM     20  O5  ASG A 810       0.500  40.040   77.710  0.00  0.00     0.000 O
ATOM     21   N  ASG A 810      -1.650  40.323   74.690  0.00  0.00     0.000 N
ATOM     23  HD  ASG A 810      -1.150  40.823   75.190  0.00  0.00     0.000 HD
ATOM     23   O  ASG A 810      -0.510  39.441   72.960  0.00  0.00     0.000 OA
ATOM     24   C  ASG A 810      -1.500  40.015   73.400  0.00  0.00     0.000 C
ATOM     25   C  ASG A 810      -2.630  40.390   72.510  0.00  0.00     0.000 C
ATOM     26   O  ASG A 810       0.150  37.246   76.650  0.00  0.00     0.000 O
ATOM     27   O  ASG A 810       0.170  35.296   78.210  0.00  0.00     0.000 OA
ATOM     28   O  ASG A 810      -0.850  35.030   76.000  0.00  0.00     0.000 OA
ATOM     29   O  ASG A 810       1.660  35.219   76.210  0.00  0.00     0.000 OA
ATOM     30   S  ASG A 810       0.220  35.618   76.780  0.00  0.00     0.000 S
ATOM     31   O  ASG A 810       1.500  39.423   79.870  0.00  0.00     0.000 O
ATOM     33  HD  ASG A 810       2.000  39.923   80.370  0.00  0.00     0.000 HD
ATOM     33   C  ASG A 810       0.830  38.303   79.340  0.00  0.00     0.000 C
BRANCH 15 34
ATOM     34  O4  ASG A 810       0.510  41.726   76.160  0.00  0.00     0.000 O
BRANCH 34 38
ATOM     35  C1  GCT A 811       3.420  44.660   76.980  0.00  0.00     0.000 C
ATOM     36  C2  GCT A 811       3.060  43.904   78.250  0.00  0.00     0.000 C
ATOM     37  C3  GCT A 811       2.390  42.601   77.880  0.00  0.00     0.000 C
ATOM     38  C4  GCT A 811       1.030  43.008   77.300  0.00  0.00     0.000 C
ATOM     39  C5  GCT A 811       1.100  44.057   76.190  0.00  0.00     0.000 C
ATOM     40  O5  GCT A 811       2.470  44.468   75.930  0.00  0.00     0.000 O
ATOM     41   O  GCT A 811       4.260  43.662   78.920  0.00  0.00     0.000 O
ATOM     43  HD  GCT A 811       4.760  44.162   79.420  0.00  0.00     0.000 HD
ATOM     43   O  GCT A 811       2.190  41.810   79.030  0.00  0.00     0.000 O
ATOM     45  HD  GCT A 811       2.690  42.310   79.530  0.00  0.00     0.000 HD
ATOM     45   C  GCT A 811       0.180  45.252   76.450  0.00  0.00     0.000 C
ATOM     46   O  GCT A 811       0.450  46.406   75.970  0.00  0.00     0.000 OA
ATOM     47   O  GCT A 811      -0.850  45.044   77.130  0.00  0.00     0.000 OA
BRANCH 35 48
ATOM     48  O3  ASG A 812       3.580  46.030   77.310  0.00  0.00     0.000 O
BRANCH 48 51
ATOM     49  C1  ASG A 812       6.520  48.045   76.370  0.00  0.00     0.000 C
ATOM     50  C2  ASG A 812       5.540  47.234   77.220  0.00  0.00     0.000 C
ATOM     51  C3  ASG A 812       4.480  46.580   76.350  0.00  0.00     0.000 C
ATOM     52  C4  ASG A 812       3.810  47.600   75.470  0.00  0.00     0.000 C
ATOM     53  C5  ASG A 812       4.940  48.335   74.720  0.00  0.00     0.000 C
ATOM     54  O5  ASG A 812       5.750  49.022   75.690  0.00  0.00     0.000 O
ATOM     55   O  ASG A 812       7.460  48.708   77.200  0.00  0.00     0.000 OA
ATOM     56   C  ASG A 812       6.540  46.353   79.250  0.00  0.00     0.000 C
ATOM     57   C  ASG A 812       6.910  45.061   79.940  0.00  0.00     0.000 C
ATOM     58   O  ASG A 812       6.580  47.474   79.770  0.00  0.00     0.000 OA
ATOM     59   N  ASG A 812       6.190  46.193   77.970  0.00  0.00     0.000 N
ATOM     61  HD  ASG A 812       6.690  46.693   78.470  0.00  0.00     0.000 HD
ATOM     61   O  ASG A 812       3.070  48.435   76.360  0.00  0.00     0.000 O
ATOM     62   O  ASG A 812       1.190  48.962   74.750  0.00  0.00     0.000 OA
ATOM     63   O  ASG A 812       0.970  49.611   76.970  0.00  0.00     0.000 OA
ATOM     64   O  ASG A 812       2.520  50.875   75.540  0.00  0.00     0.000 OA
ATOM     65   S  ASG A 812       1.900  49.452   75.900  0.00  0.00     0.000 S
ATOM     66   O  ASG A 812       5.490  49.808   72.840  0.00  0.00     0.000 O
ATOM     68  HD  ASG A 812       5.990  50.308   73.340  0.00  0.00     0.000 HD
ATOM     68   C  ASG A 812       4.430  49.227   73.600  0.00  0.00     0.000 C
ENDBRANCH 48 51
ENDBRANCH 35 48
ENDBRANCH 34 38
ENDBRANCH 15 34
ENDBRANCH 14 17
ENDBRANCH 1 14
TORSDOF 6