ROOT
ATOM      1  C1  GAD A 809      -3.650  37.731   75.150  0.00  0.00     0.000 C
ATOM      2  C2  GAD A 809      -3.980  36.674   74.110  0.00  0.00     0.000 C
ATOM      3  C3  GAD A 809      -5.480  36.636   73.850  0.00  0.00     0.000 C
ATOM      4  C4  GAD A 809      -6.220  36.923   75.160  0.00  0.00     0.000 C
ATOM      5  C5  GAD A 809      -5.660  37.275   76.310  0.00  0.00     0.000 C
ATOM      6  O5  GAD A 809      -4.270  37.413   76.370  0.00  0.00     0.000 O
ATOM      7   O  GAD A 809      -3.320  36.986   72.860  0.00  0.00     0.000 O
ATOM      9  HD  GAD A 809      -2.820  37.486   73.360  0.00  0.00     0.000 HD
ATOM      9   O  GAD A 809      -5.850  35.346   73.330  0.00  0.00     0.000 O
ATOM     11  HD  GAD A 809      -5.350  35.846   73.830  0.00  0.00     0.000 HD
ATOM     11   O  GAD A 809      -7.570  37.889   77.480  0.00  0.00     0.000 OA
ATOM     12   O  GAD A 809      -5.680  37.452   78.620  0.00  0.00     0.000 OA
ATOM     13   C  GAD A 809      -6.360  37.548   77.560  0.00  0.00     0.000 C
ENDROOT
BRANCH 1 14
ATOM     14  O3  ASG A 810      -2.240  37.663   75.450  0.00  0.00     0.000 O
BRANCH 14 17
ATOM     15  C1  ASG A 810      -0.340  40.701   76.590  0.00  0.00     0.000 C
ATOM     16  C2  ASG A 810      -0.910  39.679   75.600  0.00  0.00     0.000 C
ATOM     17  C3  ASG A 810      -1.770  38.687   76.370  0.00  0.00     0.000 C
ATOM     18  C4  ASG A 810      -0.910  38.049   77.420  0.00  0.00     0.000 C
ATOM     19  C5  ASG A 810      -0.250  39.085   78.340  0.00  0.00     0.000 C
ATOM     20  O5  ASG A 810       0.480  40.004   77.490  0.00  0.00     0.000 O
ATOM     21   C  ASG A 810      -1.580  40.017   73.220  0.00  0.00     0.000 C
ATOM     22   C  ASG A 810      -2.690  40.392   72.340  0.00  0.00     0.000 C
ATOM     23   N  ASG A 810      -1.750  40.225   74.560  0.00  0.00     0.000 N
ATOM     25  HD  ASG A 810      -1.250  40.725   75.060  0.00  0.00     0.000 HD
ATOM     25   O  ASG A 810      -0.580  39.398   72.820  0.00  0.00     0.000 OA
ATOM     26   O  ASG A 810       0.090  37.221   76.740  0.00  0.00     0.000 O
ATOM     27   O  ASG A 810       0.480  35.426   78.340  0.00  0.00     0.000 OA
ATOM     28   O  ASG A 810      -1.400  35.156   76.950  0.00  0.00     0.000 OA
ATOM     29   O  ASG A 810       0.910  35.048   75.880  0.00  0.00     0.000 OA
ATOM     30   S  ASG A 810       0.030  35.617   76.980  0.00  0.00     0.000 S
ATOM     31   C  ASG A 810       0.710  38.403   79.250  0.00  0.00     0.000 C
ATOM     32   O  ASG A 810       1.300  39.389   79.950  0.00  0.00     0.000 O
ATOM     34  HD  ASG A 810       1.800  39.889   80.450  0.00  0.00     0.000 HD
BRANCH 15 34
ATOM     34  O4  ASG A 810       0.480  41.586   75.870  0.00  0.00     0.000 O
BRANCH 34 38
ATOM     35  C1  GCT A 811       3.220  44.631   76.840  0.00  0.00     0.000 C
ATOM     36  C2  GCT A 811       2.850  44.001   78.160  0.00  0.00     0.000 C
ATOM     37  C3  GCT A 811       2.230  42.692   77.690  0.00  0.00     0.000 C
ATOM     38  C4  GCT A 811       0.850  43.049   77.130  0.00  0.00     0.000 C
ATOM     39  C5  GCT A 811       0.910  44.044   75.980  0.00  0.00     0.000 C
ATOM     40  O5  GCT A 811       2.260  44.480   75.800  0.00  0.00     0.000 O
ATOM     41   O  GCT A 811       4.060  43.573   78.720  0.00  0.00     0.000 O
ATOM     43  HD  GCT A 811       4.560  44.073   79.220  0.00  0.00     0.000 HD
ATOM     43   O  GCT A 811       2.210  41.820   78.710  0.00  0.00     0.000 O
ATOM     45  HD  GCT A 811       2.710  42.320   79.210  0.00  0.00     0.000 HD
ATOM     45   C  GCT A 811      -0.200  45.100   75.920  0.00  0.00     0.000 C
ATOM     46   O  GCT A 811       0.030  46.268   75.530  0.00  0.00     0.000 OA
ATOM     47   O  GCT A 811      -1.340  44.703   76.210  0.00  0.00     0.000 OA
BRANCH 35 48
ATOM     48  O3  ASG A 812       3.540  45.966   77.190  0.00  0.00     0.000 O
BRANCH 48 51
ATOM     49  C1  ASG A 812       6.540  47.969   76.310  0.00  0.00     0.000 C
ATOM     50  C2  ASG A 812       5.540  47.111   77.090  0.00  0.00     0.000 C
ATOM     51  C3  ASG A 812       4.420  46.511   76.240  0.00  0.00     0.000 C
ATOM     52  C4  ASG A 812       3.750  47.558   75.390  0.00  0.00     0.000 C
ATOM     53  C5  ASG A 812       4.870  48.215   74.570  0.00  0.00     0.000 C
ATOM     54  O5  ASG A 812       5.790  48.871   75.490  0.00  0.00     0.000 O
ENDBRANCH 48 51
ENDBRANCH 35 48
ENDBRANCH 34 38
ENDBRANCH 15 34
ENDBRANCH 14 17
ENDBRANCH 1 14
TORSDOF 6