ROOT
ATOM      1  C1  NT1 A 601      30.230   5.858   40.650  0.00  0.00     0.000 C
ATOM      2  C2  NT1 A 601      29.570   6.376   39.350  0.00  0.00     0.000 C
ATOM      3  C3  NT1 A 601      30.670   6.547   38.200  0.00  0.00     0.000 C
ATOM      4  C4  NT1 A 601      31.750   7.524   38.670  0.00  0.00     0.000 C
ATOM      5  C5  NT1 A 601      32.390   6.958   40.040  0.00  0.00     0.000 C
ATOM      6  O5  NT1 A 601      31.330   6.777   41.070  0.00  0.00     0.000 O
ATOM      7  C2  NT1 A 601      28.150   2.717   44.070  0.00  0.00     0.000 C
ATOM      8   O  NT1 A 601      27.020   1.834   43.920  0.00  0.00     0.000 O
ATOM      9   C  NT1 A 601      25.820   1.898   45.030  0.00  0.00     0.000 C
ATOM     10  C1  NT1 A 601      29.520   2.008   44.560  0.00  0.00     0.000 C
ATOM     11  C4  NT1 A 601      29.730   4.227   42.540  0.00  0.00     0.000 C
ATOM     12  C5  NT1 A 601      31.090   3.563   43.260  0.00  0.00     0.000 C
ATOM     13  O5  NT1 A 601      30.430   3.287   44.570  0.00  0.00     0.000 O
ATOM     14   C  NT1 A 601      32.080   4.772   43.210  0.00  0.00     0.000 C
ATOM     15  C3  NT1 A 601      28.470   3.274   42.470  0.00  0.00     0.000 C
ATOM     16   O  NT1 A 601      27.330   3.937   41.850  0.00  0.00     0.000 O
ATOM     17   C  NT1 A 601      26.600   3.208   40.530  0.00  0.00     0.000 C
ATOM     18   O  NT1 A 601      28.560   5.520   38.960  0.00  0.00     0.000 O
ATOM     19   C  NT1 A 601      27.190   6.096   38.530  0.00  0.00     0.000 C
ATOM     20   O  NT1 A 601      30.100   7.021   37.000  0.00  0.00     0.000 O
ATOM     21   C  NT1 A 601      29.810   5.913   35.860  0.00  0.00     0.000 C
ATOM     22   C  NT1 A 601      33.480   7.914   40.580  0.00  0.00     0.000 C
ENDROOT
BRANCH 60 23
ATOM     23  O4  NT1 A 601      29.620   4.514   41.060  0.00  0.00     0.000 O
BRANCH 23 90
ATOM     24  C1  NT1 A 601      29.520   2.008   44.560  0.00  0.00     0.000 C
ATOM     25  C2  NT1 A 601      28.150   2.717   44.070  0.00  0.00     0.000 C
ATOM     26  C3  NT1 A 601      28.470   3.274   42.470  0.00  0.00     0.000 C
ATOM     27  C4  NT1 A 601      29.730   4.227   42.540  0.00  0.00     0.000 C
ATOM     28  C5  NT1 A 601      31.090   3.563   43.260  0.00  0.00     0.000 C
ATOM     29  O5  NT1 A 601      30.430   3.287   44.570  0.00  0.00     0.000 O
ATOM     30  C4  NT1 A 601      30.020   1.235   46.870  0.00  0.00     0.000 C
ATOM     31  C5  NT1 A 601      29.110   0.652   48.020  0.00  0.00     0.000 C
ATOM     32  O5  NT1 A 601      29.950  -0.188   48.920  0.00  0.00     0.000 O
ATOM     33   C  NT1 A 601      28.020  -0.115   47.300  0.00  0.00     0.000 C
ATOM     34   O  NT1 A 601      28.210  -1.433   47.730  0.00  0.00     0.000 O
ATOM     35   S  NT1 A 601      27.330  -2.598   47.240  0.00  0.00     0.000 S
ATOM     36   O  NT1 A 601      28.320  -3.400   46.600  0.00  0.00     0.000 OA
ATOM     37   O  NT1 A 601      26.360  -2.085   46.320  0.00  0.00     0.000 OA
ATOM     38   O  NT1 A 601      26.840  -3.186   48.390  0.00  0.00     0.000 OA
ATOM     39  C3  NT1 A 601      31.240   2.050   47.610  0.00  0.00     0.000 C
ATOM     40   O  NT1 A 601      32.100   2.613   46.580  0.00  0.00     0.000 O
ATOM     41   C  NT1 A 601      33.270   3.410   46.920  0.00  0.00     0.000 C
ATOM     42  C2  NT1 A 601      32.040   0.980   48.620  0.00  0.00     0.000 C
ATOM     43   O  NT1 A 601      33.170   1.518   49.360  0.00  0.00     0.000 O
ATOM     44   C  NT1 A 601      32.950   2.884   50.260  0.00  0.00     0.000 C
ATOM     45  C1  NT1 A 601      31.030   0.387   49.680  0.00  0.00     0.000 C
ATOM     46   O  NT1 A 601      27.020   1.834   43.920  0.00  0.00     0.000 O
ATOM     47   C  NT1 A 601      25.820   1.898   45.030  0.00  0.00     0.000 C
ATOM     48   O  NT1 A 601      27.330   3.937   41.850  0.00  0.00     0.000 O
ATOM     49   C  NT1 A 601      26.600   3.208   40.530  0.00  0.00     0.000 C
ATOM     50  C4  NT1 A 601      31.750   7.524   38.670  0.00  0.00     0.000 C
ATOM     51  C5  NT1 A 601      32.390   6.958   40.040  0.00  0.00     0.000 C
ATOM     52  O5  NT1 A 601      31.330   6.777   41.070  0.00  0.00     0.000 O
ATOM     53   C  NT1 A 601      33.480   7.914   40.580  0.00  0.00     0.000 C
ATOM     54  C3  NT1 A 601      30.670   6.547   38.200  0.00  0.00     0.000 C
ATOM     55   O  NT1 A 601      30.100   7.021   37.000  0.00  0.00     0.000 O
ATOM     56   C  NT1 A 601      29.810   5.913   35.860  0.00  0.00     0.000 C
ATOM     57  C2  NT1 A 601      29.570   6.376   39.350  0.00  0.00     0.000 C
ATOM     58   O  NT1 A 601      28.560   5.520   38.960  0.00  0.00     0.000 O
ATOM     59   C  NT1 A 601      27.190   6.096   38.530  0.00  0.00     0.000 C
ATOM     60  C1  NT1 A 601      30.230   5.858   40.650  0.00  0.00     0.000 C
ATOM     61   C  NT1 A 601      32.080   4.772   43.210  0.00  0.00     0.000 C
BRANCH 89 62
ATOM     62  O4  NT1 A 601      29.080   2.083   45.900  0.00  0.00     0.000 O
BRANCH 62 136
ATOM     63  C1  NT1 A 601      31.030   0.387   49.680  0.00  0.00     0.000 C
ATOM     64  C2  NT1 A 601      32.040   0.980   48.620  0.00  0.00     0.000 C
ATOM     65  C3  NT1 A 601      31.240   2.050   47.610  0.00  0.00     0.000 C
ATOM     66  C4  NT1 A 601      30.020   1.235   46.870  0.00  0.00     0.000 C
ATOM     67  C5  NT1 A 601      29.110   0.652   48.020  0.00  0.00     0.000 C
ATOM     68  O5  NT1 A 601      29.950  -0.188   48.920  0.00  0.00     0.000 O
ATOM     69   O  NT1 A 601      30.650   1.501   55.640  0.00  0.00     0.000 O
ATOM     70   C  NT1 A 601      30.390   0.425   56.590  0.00  0.00     0.000 C
ATOM     71  C1  NT1 A 601      28.650   2.211   54.390  0.00  0.00     0.000 C
ATOM     72  C4  NT1 A 601      29.820   1.272   51.840  0.00  0.00     0.000 C
ATOM     73  C5  NT1 A 601      28.510   2.285   51.970  0.00  0.00     0.000 C
ATOM     74  O5  NT1 A 601      27.840   2.069   53.230  0.00  0.00     0.000 O
ATOM     75   C  NT1 A 601      27.420   2.112   50.810  0.00  0.00     0.000 C
ATOM     76   O  NT1 A 601      26.820   0.983   50.630  0.00  0.00     0.000 OA
ATOM     77   O  NT1 A 601      27.110   3.101   50.040  0.00  0.00     0.000 OA
ATOM     78  C3  NT1 A 601      30.810   1.547   53.150  0.00  0.00     0.000 C
ATOM     79   O  NT1 A 601      32.050   0.701   53.170  0.00  0.00     0.000 O
ATOM     80   C  NT1 A 601      32.040  -0.741   53.530  0.00  0.00     0.000 C
ATOM     81  C2  NT1 A 601      29.920   1.292   54.460  0.00  0.00     0.000 C
ATOM     82   O  NT1 A 601      33.170   1.518   49.360  0.00  0.00     0.000 O
ATOM     83   C  NT1 A 601      32.950   2.884   50.260  0.00  0.00     0.000 C
ATOM     84   C  NT1 A 601      33.270   3.410   46.920  0.00  0.00     0.000 C
ATOM     85   O  NT1 A 601      32.100   2.613   46.580  0.00  0.00     0.000 O
ATOM     86  C2  NT1 A 601      28.150   2.717   44.070  0.00  0.00     0.000 C
ATOM     87   O  NT1 A 601      27.020   1.834   43.920  0.00  0.00     0.000 O
ATOM     88   C  NT1 A 601      25.820   1.898   45.030  0.00  0.00     0.000 C
ATOM     89  C1  NT1 A 601      29.520   2.008   44.560  0.00  0.00     0.000 C
ATOM     90  C4  NT1 A 601      29.730   4.227   42.540  0.00  0.00     0.000 C
ATOM     91  C5  NT1 A 601      31.090   3.563   43.260  0.00  0.00     0.000 C
ATOM     92  O5  NT1 A 601      30.430   3.287   44.570  0.00  0.00     0.000 O
ATOM     93   C  NT1 A 601      32.080   4.772   43.210  0.00  0.00     0.000 C
ATOM     94  C3  NT1 A 601      28.470   3.274   42.470  0.00  0.00     0.000 C
ATOM     95   O  NT1 A 601      27.330   3.937   41.850  0.00  0.00     0.000 O
ATOM     96   C  NT1 A 601      26.600   3.208   40.530  0.00  0.00     0.000 C
ATOM     97   C  NT1 A 601      28.020  -0.115   47.300  0.00  0.00     0.000 C
ATOM     98   O  NT1 A 601      28.210  -1.433   47.730  0.00  0.00     0.000 O
ATOM     99   S  NT1 A 601      27.330  -2.598   47.240  0.00  0.00     0.000 S
ATOM    100   O  NT1 A 601      28.320  -3.400   46.600  0.00  0.00     0.000 OA
ATOM    101   O  NT1 A 601      26.360  -2.085   46.320  0.00  0.00     0.000 OA
ATOM    102   O  NT1 A 601      26.840  -3.186   48.390  0.00  0.00     0.000 OA
BRANCH 151 103
ATOM    103  O4  NT1 A 601      30.530   1.497   50.540  0.00  0.00     0.000 O
BRANCH 103 188
ATOM    104  C1  NT1 A 601      28.650   2.211   54.390  0.00  0.00     0.000 C
ATOM    105  C2  NT1 A 601      29.920   1.292   54.460  0.00  0.00     0.000 C
ATOM    106  C3  NT1 A 601      30.810   1.547   53.150  0.00  0.00     0.000 C
ATOM    107  C4  NT1 A 601      29.820   1.272   51.840  0.00  0.00     0.000 C
ATOM    108  C5  NT1 A 601      28.510   2.285   51.970  0.00  0.00     0.000 C
ATOM    109  O5  NT1 A 601      27.840   2.069   53.230  0.00  0.00     0.000 O
ATOM    110  C4  NT1 A 601      27.180   3.027   56.170  0.00  0.00     0.000 C
ATOM    111  C5  NT1 A 601      27.950   3.576   57.480  0.00  0.00     0.000 C
ATOM    112  O5  NT1 A 601      27.150   4.646   58.140  0.00  0.00     0.000 O
ATOM    113   C  NT1 A 601      29.340   4.141   57.130  0.00  0.00     0.000 C
ATOM    114   O  NT1 A 601      29.150   5.115   56.110  0.00  0.00     0.000 O
ATOM    115   S  NT1 A 601      30.370   5.906   55.510  0.00  0.00     0.000 S
ATOM    116   O  NT1 A 601      30.300   5.576   54.120  0.00  0.00     0.000 OA
ATOM    117   O  NT1 A 601      31.630   5.439   56.190  0.00  0.00     0.000 OA
ATOM    118   O  NT1 A 601      29.980   7.244   55.740  0.00  0.00     0.000 OA
ATOM    119  C3  NT1 A 601      25.800   2.529   56.590  0.00  0.00     0.000 C
ATOM    120   O  NT1 A 601      25.120   2.051   55.450  0.00  0.00     0.000 O
ATOM    121   S  NT1 A 601      24.610   0.516   55.500  0.00  0.00     0.000 S
ATOM    122   O  NT1 A 601      23.700   0.327   56.570  0.00  0.00     0.000 OA
ATOM    123   O  NT1 A 601      24.040   0.440   54.300  0.00  0.00     0.000 OA
ATOM    124   O  NT1 A 601      25.820  -0.296   55.670  0.00  0.00     0.000 OA
ATOM    125  C2  NT1 A 601      25.020   3.718   57.320  0.00  0.00     0.000 C
ATOM    126   O  NT1 A 601      23.760   3.298   57.720  0.00  0.00     0.000 O
ATOM    127   S  NT1 A 601      22.650   4.308   58.070  0.00  0.00     0.000 S
ATOM    128   O  NT1 A 601      22.330   3.858   59.390  0.00  0.00     0.000 OA
ATOM    129   O  NT1 A 601      21.670   4.042   57.140  0.00  0.00     0.000 OA
ATOM    130   O  NT1 A 601      23.170   5.685   57.920  0.00  0.00     0.000 OA
ATOM    131  C1  NT1 A 601      25.800   4.193   58.550  0.00  0.00     0.000 C
ATOM    132   O  NT1 A 601      30.650   1.501   55.640  0.00  0.00     0.000 O
ATOM    133   C  NT1 A 601      30.390   0.425   56.590  0.00  0.00     0.000 C
ATOM    134   O  NT1 A 601      32.050   0.701   53.170  0.00  0.00     0.000 O
ATOM    135   C  NT1 A 601      32.040  -0.741   53.530  0.00  0.00     0.000 C
ATOM    136  C4  NT1 A 601      30.020   1.235   46.870  0.00  0.00     0.000 C
ATOM    137  C5  NT1 A 601      29.110   0.652   48.020  0.00  0.00     0.000 C
ATOM    138  O5  NT1 A 601      29.950  -0.188   48.920  0.00  0.00     0.000 O
ATOM    139   C  NT1 A 601      28.020  -0.115   47.300  0.00  0.00     0.000 C
ATOM    140   O  NT1 A 601      28.210  -1.433   47.730  0.00  0.00     0.000 O
ATOM    141   S  NT1 A 601      27.330  -2.598   47.240  0.00  0.00     0.000 S
ATOM    142   O  NT1 A 601      28.320  -3.400   46.600  0.00  0.00     0.000 OA
ATOM    143   O  NT1 A 601      26.360  -2.085   46.320  0.00  0.00     0.000 OA
ATOM    144   O  NT1 A 601      26.840  -3.186   48.390  0.00  0.00     0.000 OA
ATOM    145  C3  NT1 A 601      31.240   2.050   47.610  0.00  0.00     0.000 C
ATOM    146   O  NT1 A 601      32.100   2.613   46.580  0.00  0.00     0.000 O
ATOM    147   C  NT1 A 601      33.270   3.410   46.920  0.00  0.00     0.000 C
ATOM    148  C2  NT1 A 601      32.040   0.980   48.620  0.00  0.00     0.000 C
ATOM    149   O  NT1 A 601      33.170   1.518   49.360  0.00  0.00     0.000 O
ATOM    150   C  NT1 A 601      32.950   2.884   50.260  0.00  0.00     0.000 C
ATOM    151  C1  NT1 A 601      31.030   0.387   49.680  0.00  0.00     0.000 C
ATOM    152   C  NT1 A 601      27.420   2.112   50.810  0.00  0.00     0.000 C
ATOM    153   O  NT1 A 601      26.820   0.983   50.630  0.00  0.00     0.000 OA
ATOM    154   O  NT1 A 601      27.110   3.101   50.040  0.00  0.00     0.000 OA
BRANCH 187 155
ATOM    155  O4  NT1 A 601      27.900   1.970   55.520  0.00  0.00     0.000 O
BRANCH 155 234
ATOM    156  C1  NT1 A 601      25.800   4.193   58.550  0.00  0.00     0.000 C
ATOM    157  C2  NT1 A 601      25.020   3.718   57.320  0.00  0.00     0.000 C
ATOM    158  C3  NT1 A 601      25.800   2.529   56.590  0.00  0.00     0.000 C
ATOM    159  C4  NT1 A 601      27.180   3.027   56.170  0.00  0.00     0.000 C
ATOM    160  C5  NT1 A 601      27.950   3.576   57.480  0.00  0.00     0.000 C
ATOM    161  O5  NT1 A 601      27.150   4.646   58.140  0.00  0.00     0.000 O
ATOM    162   O  NT1 A 601      26.400   0.258   59.000  0.00  0.00     0.000 OA
ATOM    163  C3  NT1 A 601      25.370   3.546   61.820  0.00  0.00     0.000 C
ATOM    164   O  NT1 A 601      25.530   4.933   62.010  0.00  0.00     0.000 O
ATOM    165   C  NT1 A 601      24.310   5.659   61.800  0.00  0.00     0.000 C
ATOM    166  C2  NT1 A 601      25.560   2.848   63.190  0.00  0.00     0.000 C
ATOM    167   O  NT1 A 601      24.640   3.359   64.130  0.00  0.00     0.000 O
ATOM    168   C  NT1 A 601      25.330   4.280   65.290  0.00  0.00     0.000 C
ATOM    169  C1  NT1 A 601      25.380   1.324   62.980  0.00  0.00     0.000 C
ATOM    170  C4  NT1 A 601      26.410   3.005   60.720  0.00  0.00     0.000 C
ATOM    171  C5  NT1 A 601      26.950   1.517   61.050  0.00  0.00     0.000 C
ATOM    172  O5  NT1 A 601      25.940   0.761   61.760  0.00  0.00     0.000 O
ATOM    173   C  NT1 A 601      27.310   0.636   59.830  0.00  0.00     0.000 C
ATOM    174   O  NT1 A 601      28.510   0.287   59.670  0.00  0.00     0.000 OA
ATOM    175   O  NT1 A 601      23.760   3.298   57.720  0.00  0.00     0.000 O
ATOM    176   S  NT1 A 601      22.650   4.308   58.070  0.00  0.00     0.000 S
ATOM    177   O  NT1 A 601      22.330   3.858   59.390  0.00  0.00     0.000 OA
ATOM    178   O  NT1 A 601      21.670   4.042   57.140  0.00  0.00     0.000 OA
ATOM    179   O  NT1 A 601      23.170   5.685   57.920  0.00  0.00     0.000 OA
ATOM    180   O  NT1 A 601      25.120   2.051   55.450  0.00  0.00     0.000 O
ATOM    181   S  NT1 A 601      24.610   0.516   55.500  0.00  0.00     0.000 S
ATOM    182   O  NT1 A 601      23.700   0.327   56.570  0.00  0.00     0.000 OA
ATOM    183   O  NT1 A 601      24.040   0.440   54.300  0.00  0.00     0.000 OA
ATOM    184   O  NT1 A 601      25.820  -0.296   55.670  0.00  0.00     0.000 OA
ATOM    185   O  NT1 A 601      30.650   1.501   55.640  0.00  0.00     0.000 O
ATOM    186   C  NT1 A 601      30.390   0.425   56.590  0.00  0.00     0.000 C
ATOM    187  C1  NT1 A 601      28.650   2.211   54.390  0.00  0.00     0.000 C
ATOM    188  C4  NT1 A 601      29.820   1.272   51.840  0.00  0.00     0.000 C
ATOM    189  C5  NT1 A 601      28.510   2.285   51.970  0.00  0.00     0.000 C
ATOM    190  O5  NT1 A 601      27.840   2.069   53.230  0.00  0.00     0.000 O
ATOM    191   C  NT1 A 601      27.420   2.112   50.810  0.00  0.00     0.000 C
ATOM    192   O  NT1 A 601      26.820   0.983   50.630  0.00  0.00     0.000 OA
ATOM    193   O  NT1 A 601      27.110   3.101   50.040  0.00  0.00     0.000 OA
ATOM    194  C3  NT1 A 601      30.810   1.547   53.150  0.00  0.00     0.000 C
ATOM    195   O  NT1 A 601      32.050   0.701   53.170  0.00  0.00     0.000 O
ATOM    196   C  NT1 A 601      32.040  -0.741   53.530  0.00  0.00     0.000 C
ATOM    197  C2  NT1 A 601      29.920   1.292   54.460  0.00  0.00     0.000 C
ATOM    198   C  NT1 A 601      29.340   4.141   57.130  0.00  0.00     0.000 C
ATOM    199   O  NT1 A 601      29.150   5.115   56.110  0.00  0.00     0.000 O
ATOM    200   S  NT1 A 601      30.370   5.906   55.510  0.00  0.00     0.000 S
ATOM    201   O  NT1 A 601      30.300   5.576   54.120  0.00  0.00     0.000 OA
ATOM    202   O  NT1 A 601      31.630   5.439   56.190  0.00  0.00     0.000 OA
ATOM    203   O  NT1 A 601      29.980   7.244   55.740  0.00  0.00     0.000 OA
BRANCH 255 204
ATOM    204  O4  NT1 A 601      25.760   3.016   59.430  0.00  0.00     0.000 O
BRANCH 204 281
ATOM    205  C1  NT1 A 601      25.380   1.324   62.980  0.00  0.00     0.000 C
ATOM    206  C2  NT1 A 601      25.560   2.848   63.190  0.00  0.00     0.000 C
ATOM    207  C3  NT1 A 601      25.370   3.546   61.820  0.00  0.00     0.000 C
ATOM    208  C4  NT1 A 601      26.410   3.005   60.720  0.00  0.00     0.000 C
ATOM    209  C5  NT1 A 601      26.950   1.517   61.050  0.00  0.00     0.000 C
ATOM    210  O5  NT1 A 601      25.940   0.761   61.760  0.00  0.00     0.000 O
ATOM    211  C4  NT1 A 601      25.320  -0.642   64.300  0.00  0.00     0.000 C
ATOM    212  C5  NT1 A 601      24.340  -0.646   65.540  0.00  0.00     0.000 C
ATOM    213  O5  NT1 A 601      23.760  -1.951   65.700  0.00  0.00     0.000 O
ATOM    214   C  NT1 A 601      23.250   0.326   65.370  0.00  0.00     0.000 C
ATOM    215   O  NT1 A 601      22.570  -0.075   64.250  0.00  0.00     0.000 O
ATOM    216   S  NT1 A 601      21.290   0.761   63.730  0.00  0.00     0.000 S
ATOM    217   O  NT1 A 601      21.620   1.203   62.380  0.00  0.00     0.000 OA
ATOM    218   O  NT1 A 601      21.090   1.891   64.620  0.00  0.00     0.000 OA
ATOM    219   O  NT1 A 601      20.170  -0.166   63.750  0.00  0.00     0.000 OA
ATOM    220  C3  NT1 A 601      26.400  -1.679   64.510  0.00  0.00     0.000 C
ATOM    221   O  NT1 A 601      27.350  -1.712   63.360  0.00  0.00     0.000 O
ATOM    222   C  NT1 A 601      28.810  -1.811   63.600  0.00  0.00     0.000 C
ATOM    223  C2  NT1 A 601      25.740  -3.042   64.690  0.00  0.00     0.000 C
ATOM    224   O  NT1 A 601      26.750  -4.114   64.880  0.00  0.00     0.000 O
ATOM    225   S  NT1 A 601      26.900  -5.299   63.870  0.00  0.00     0.000 S
ATOM    226   O  NT1 A 601      28.330  -5.133   63.290  0.00  0.00     0.000 OA
ATOM    227   O  NT1 A 601      25.940  -5.170   62.800  0.00  0.00     0.000 OA
ATOM    228   O  NT1 A 601      26.810  -6.561   64.570  0.00  0.00     0.000 OA
ATOM    229  C1  NT1 A 601      24.760  -3.000   65.890  0.00  0.00     0.000 C
ATOM    230   O  NT1 A 601      24.640   3.359   64.130  0.00  0.00     0.000 O
ATOM    231   C  NT1 A 601      25.330   4.280   65.290  0.00  0.00     0.000 C
ATOM    232   O  NT1 A 601      25.530   4.933   62.010  0.00  0.00     0.000 O
ATOM    233   C  NT1 A 601      24.310   5.659   61.800  0.00  0.00     0.000 C
ATOM    234  C4  NT1 A 601      27.180   3.027   56.170  0.00  0.00     0.000 C
ATOM    235  C5  NT1 A 601      27.950   3.576   57.480  0.00  0.00     0.000 C
ATOM    236  O5  NT1 A 601      27.150   4.646   58.140  0.00  0.00     0.000 O
ATOM    237   C  NT1 A 601      29.340   4.141   57.130  0.00  0.00     0.000 C
ATOM    238   O  NT1 A 601      29.150   5.115   56.110  0.00  0.00     0.000 O
ATOM    239   S  NT1 A 601      30.370   5.906   55.510  0.00  0.00     0.000 S
ATOM    240   O  NT1 A 601      30.300   5.576   54.120  0.00  0.00     0.000 OA
ATOM    241   O  NT1 A 601      31.630   5.439   56.190  0.00  0.00     0.000 OA
ATOM    242   O  NT1 A 601      29.980   7.244   55.740  0.00  0.00     0.000 OA
ATOM    243  C3  NT1 A 601      25.800   2.529   56.590  0.00  0.00     0.000 C
ATOM    244   O  NT1 A 601      25.120   2.051   55.450  0.00  0.00     0.000 O
ATOM    245   S  NT1 A 601      24.610   0.516   55.500  0.00  0.00     0.000 S
ATOM    246   O  NT1 A 601      23.700   0.327   56.570  0.00  0.00     0.000 OA
ATOM    247   O  NT1 A 601      24.040   0.440   54.300  0.00  0.00     0.000 OA
ATOM    248   O  NT1 A 601      25.820  -0.296   55.670  0.00  0.00     0.000 OA
ATOM    249  C2  NT1 A 601      25.020   3.718   57.320  0.00  0.00     0.000 C
ATOM    250   O  NT1 A 601      23.760   3.298   57.720  0.00  0.00     0.000 O
ATOM    251   S  NT1 A 601      22.650   4.308   58.070  0.00  0.00     0.000 S
ATOM    252   O  NT1 A 601      22.330   3.858   59.390  0.00  0.00     0.000 OA
ATOM    253   O  NT1 A 601      21.670   4.042   57.140  0.00  0.00     0.000 OA
ATOM    254   O  NT1 A 601      23.170   5.685   57.920  0.00  0.00     0.000 OA
ATOM    255  C1  NT1 A 601      25.800   4.193   58.550  0.00  0.00     0.000 C
ATOM    256   O  NT1 A 601      26.400   0.258   59.000  0.00  0.00     0.000 OA
ATOM    257   C  NT1 A 601      27.310   0.636   59.830  0.00  0.00     0.000 C
ATOM    258   O  NT1 A 601      28.510   0.287   59.670  0.00  0.00     0.000 OA
BRANCH 280 259
ATOM    259  O4  NT1 A 601      25.920   0.614   64.100  0.00  0.00     0.000 O
BRANCH 259 263
ATOM    260  C1  NT1 A 601      24.760  -3.000   65.890  0.00  0.00     0.000 C
ATOM    261  C2  NT1 A 601      25.740  -3.042   64.690  0.00  0.00     0.000 C
ATOM    262  C3  NT1 A 601      26.400  -1.679   64.510  0.00  0.00     0.000 C
ATOM    263  C4  NT1 A 601      25.320  -0.642   64.300  0.00  0.00     0.000 C
ATOM    264  C5  NT1 A 601      24.340  -0.646   65.540  0.00  0.00     0.000 C
ATOM    265  O5  NT1 A 601      23.760  -1.951   65.700  0.00  0.00     0.000 O
ATOM    266   O  NT1 A 601      26.750  -4.114   64.880  0.00  0.00     0.000 O
ATOM    267   S  NT1 A 601      26.900  -5.299   63.870  0.00  0.00     0.000 S
ATOM    268   O  NT1 A 601      28.330  -5.133   63.290  0.00  0.00     0.000 OA
ATOM    269   O  NT1 A 601      25.940  -5.170   62.800  0.00  0.00     0.000 OA
ATOM    270   O  NT1 A 601      26.810  -6.561   64.570  0.00  0.00     0.000 OA
ATOM    271   O  NT1 A 601      27.350  -1.712   63.360  0.00  0.00     0.000 O
ATOM    272   C  NT1 A 601      28.810  -1.811   63.600  0.00  0.00     0.000 C
ATOM    273   O  NT1 A 601      26.400   0.258   59.000  0.00  0.00     0.000 OA
ATOM    274  C3  NT1 A 601      25.370   3.546   61.820  0.00  0.00     0.000 C
ATOM    275   O  NT1 A 601      25.530   4.933   62.010  0.00  0.00     0.000 O
ATOM    276   C  NT1 A 601      24.310   5.659   61.800  0.00  0.00     0.000 C
ATOM    277  C2  NT1 A 601      25.560   2.848   63.190  0.00  0.00     0.000 C
ATOM    278   O  NT1 A 601      24.640   3.359   64.130  0.00  0.00     0.000 O
ATOM    279   C  NT1 A 601      25.330   4.280   65.290  0.00  0.00     0.000 C
ATOM    280  C1  NT1 A 601      25.380   1.324   62.980  0.00  0.00     0.000 C
ATOM    281  C4  NT1 A 601      26.410   3.005   60.720  0.00  0.00     0.000 C
ATOM    282  C5  NT1 A 601      26.950   1.517   61.050  0.00  0.00     0.000 C
ATOM    283  O5  NT1 A 601      25.940   0.761   61.760  0.00  0.00     0.000 O
ATOM    284   C  NT1 A 601      27.310   0.636   59.830  0.00  0.00     0.000 C
ATOM    285   O  NT1 A 601      28.510   0.287   59.670  0.00  0.00     0.000 OA
ATOM    286   C  NT1 A 601      23.250   0.326   65.370  0.00  0.00     0.000 C
ATOM    287   O  NT1 A 601      22.570  -0.075   64.250  0.00  0.00     0.000 O
ATOM    288   S  NT1 A 601      21.290   0.761   63.730  0.00  0.00     0.000 S
ATOM    289   O  NT1 A 601      21.620   1.203   62.380  0.00  0.00     0.000 OA
ATOM    290   O  NT1 A 601      21.090   1.891   64.620  0.00  0.00     0.000 OA
ATOM    291   O  NT1 A 601      20.170  -0.166   63.750  0.00  0.00     0.000 OA
ENDBRANCH 259 263
ENDBRANCH 280 259
ENDBRANCH 204 281
ENDBRANCH 255 204
ENDBRANCH 155 234
ENDBRANCH 187 155
ENDBRANCH 103 188
ENDBRANCH 151 103
ENDBRANCH 62 136
ENDBRANCH 89 62
ENDBRANCH 23 90
ENDBRANCH 60 23
TORSDOF 12