ROOT
ATOM      1  C1  NT1 A 601      30.230   5.858   40.650  0.00  0.00     0.000 C
ATOM      2  C2  NT1 A 601      29.570   6.376   39.350  0.00  0.00     0.000 C
ATOM      3  C3  NT1 A 601      30.670   6.547   38.200  0.00  0.00     0.000 C
ATOM      4  C4  NT1 A 601      31.750   7.524   38.670  0.00  0.00     0.000 C
ATOM      5  C5  NT1 A 601      32.390   6.958   40.040  0.00  0.00     0.000 C
ATOM      6  O5  NT1 A 601      31.330   6.777   41.070  0.00  0.00     0.000 O
ATOM      7  C4  NT1 A 601      29.730   4.227   42.540  0.00  0.00     0.000 C
ATOM      8  C5  NT1 A 601      31.090   3.563   43.260  0.00  0.00     0.000 C
ATOM      9  O5  NT1 A 601      30.430   3.287   44.570  0.00  0.00     0.000 O
ATOM     10   C  NT1 A 601      32.080   4.772   43.210  0.00  0.00     0.000 C
ATOM     11  C3  NT1 A 601      28.470   3.274   42.470  0.00  0.00     0.000 C
ATOM     12   O  NT1 A 601      27.330   3.937   41.850  0.00  0.00     0.000 O
ATOM     13   C  NT1 A 601      26.600   3.208   40.530  0.00  0.00     0.000 C
ATOM     14  C2  NT1 A 601      28.150   2.717   44.070  0.00  0.00     0.000 C
ATOM     15   O  NT1 A 601      27.020   1.834   43.920  0.00  0.00     0.000 O
ATOM     16   C  NT1 A 601      25.820   1.898   45.030  0.00  0.00     0.000 C
ATOM     17  C1  NT1 A 601      29.520   2.008   44.560  0.00  0.00     0.000 C
ATOM     18  O4  NT1 A 601      29.080   2.083   45.900  0.00  0.00     0.000 O
ATOM     19  C4  NT1 A 601      30.020   1.235   46.870  0.00  0.00     0.000 C
ATOM     20  C5  NT1 A 601      29.110   0.652   48.020  0.00  0.00     0.000 C
ATOM     21  O5  NT1 A 601      29.950  -0.188   48.920  0.00  0.00     0.000 O
ATOM     22   C  NT1 A 601      28.020  -0.115   47.300  0.00  0.00     0.000 C
ATOM     23   O  NT1 A 601      28.210  -1.433   47.730  0.00  0.00     0.000 O
ATOM     24   S  NT1 A 601      27.330  -2.598   47.240  0.00  0.00     0.000 S
ATOM     25   O  NT1 A 601      28.320  -3.400   46.600  0.00  0.00     0.000 OA
ATOM     26   O  NT1 A 601      26.360  -2.085   46.320  0.00  0.00     0.000 OA
ATOM     27   O  NT1 A 601      26.840  -3.186   48.390  0.00  0.00     0.000 OA
ATOM     28  C3  NT1 A 601      31.240   2.050   47.610  0.00  0.00     0.000 C
ATOM     29   O  NT1 A 601      32.100   2.613   46.580  0.00  0.00     0.000 O
ATOM     30   C  NT1 A 601      33.270   3.410   46.920  0.00  0.00     0.000 C
ATOM     31  C2  NT1 A 601      32.040   0.980   48.620  0.00  0.00     0.000 C
ATOM     32   O  NT1 A 601      33.170   1.518   49.360  0.00  0.00     0.000 O
ATOM     33   C  NT1 A 601      32.950   2.884   50.260  0.00  0.00     0.000 C
ATOM     34  C1  NT1 A 601      31.030   0.387   49.680  0.00  0.00     0.000 C
ATOM     35  O4  NT1 A 601      30.530   1.497   50.540  0.00  0.00     0.000 O
ATOM     36  C4  NT1 A 601      29.820   1.272   51.840  0.00  0.00     0.000 C
ATOM     37  C5  NT1 A 601      28.510   2.285   51.970  0.00  0.00     0.000 C
ATOM     38  O5  NT1 A 601      27.840   2.069   53.230  0.00  0.00     0.000 O
ATOM     39   C  NT1 A 601      27.420   2.112   50.810  0.00  0.00     0.000 C
ATOM     40   O  NT1 A 601      26.820   0.983   50.630  0.00  0.00     0.000 OA
ATOM     41   O  NT1 A 601      27.110   3.101   50.040  0.00  0.00     0.000 OA
ATOM     42  C3  NT1 A 601      30.810   1.547   53.150  0.00  0.00     0.000 C
ATOM     43   O  NT1 A 601      32.050   0.701   53.170  0.00  0.00     0.000 O
ATOM     44   C  NT1 A 601      32.040  -0.741   53.530  0.00  0.00     0.000 C
ATOM     45  C2  NT1 A 601      29.920   1.292   54.460  0.00  0.00     0.000 C
ATOM     46   O  NT1 A 601      30.650   1.501   55.640  0.00  0.00     0.000 O
ATOM     47   C  NT1 A 601      30.390   0.425   56.590  0.00  0.00     0.000 C
ATOM     48  C1  NT1 A 601      28.650   2.211   54.390  0.00  0.00     0.000 C
ATOM     49  O4  NT1 A 601      27.900   1.970   55.520  0.00  0.00     0.000 O
ATOM     50  C4  NT1 A 601      27.180   3.027   56.170  0.00  0.00     0.000 C
ATOM     51  C5  NT1 A 601      27.950   3.576   57.480  0.00  0.00     0.000 C
ATOM     52  O5  NT1 A 601      27.150   4.646   58.140  0.00  0.00     0.000 O
ATOM     53   C  NT1 A 601      29.340   4.141   57.130  0.00  0.00     0.000 C
ATOM     54   O  NT1 A 601      29.150   5.115   56.110  0.00  0.00     0.000 O
ATOM     55   S  NT1 A 601      30.370   5.906   55.510  0.00  0.00     0.000 S
ATOM     56   O  NT1 A 601      30.300   5.576   54.120  0.00  0.00     0.000 OA
ATOM     57   O  NT1 A 601      31.630   5.439   56.190  0.00  0.00     0.000 OA
ATOM     58   O  NT1 A 601      29.980   7.244   55.740  0.00  0.00     0.000 OA
ATOM     59  C3  NT1 A 601      25.800   2.529   56.590  0.00  0.00     0.000 C
ATOM     60   O  NT1 A 601      25.120   2.051   55.450  0.00  0.00     0.000 O
ATOM     61   S  NT1 A 601      24.610   0.516   55.500  0.00  0.00     0.000 S
ATOM     62   O  NT1 A 601      23.700   0.327   56.570  0.00  0.00     0.000 OA
ATOM     63   O  NT1 A 601      24.040   0.440   54.300  0.00  0.00     0.000 OA
ATOM     64   O  NT1 A 601      25.820  -0.296   55.670  0.00  0.00     0.000 OA
ATOM     65  C2  NT1 A 601      25.020   3.718   57.320  0.00  0.00     0.000 C
ATOM     66   O  NT1 A 601      23.760   3.298   57.720  0.00  0.00     0.000 O
ATOM     67   S  NT1 A 601      22.650   4.308   58.070  0.00  0.00     0.000 S
ATOM     68   O  NT1 A 601      22.330   3.858   59.390  0.00  0.00     0.000 OA
ATOM     69   O  NT1 A 601      21.670   4.042   57.140  0.00  0.00     0.000 OA
ATOM     70   O  NT1 A 601      23.170   5.685   57.920  0.00  0.00     0.000 OA
ATOM     71  C1  NT1 A 601      25.800   4.193   58.550  0.00  0.00     0.000 C
ATOM     72  O4  NT1 A 601      25.760   3.016   59.430  0.00  0.00     0.000 O
ATOM     73  C4  NT1 A 601      26.410   3.005   60.720  0.00  0.00     0.000 C
ATOM     74  C5  NT1 A 601      26.950   1.517   61.050  0.00  0.00     0.000 C
ATOM     75  O5  NT1 A 601      25.940   0.761   61.760  0.00  0.00     0.000 O
ATOM     76   C  NT1 A 601      27.310   0.636   59.830  0.00  0.00     0.000 C
ATOM     77   O  NT1 A 601      28.510   0.287   59.670  0.00  0.00     0.000 OA
ATOM     78   O  NT1 A 601      26.400   0.258   59.000  0.00  0.00     0.000 OA
ATOM     79  C3  NT1 A 601      25.370   3.546   61.820  0.00  0.00     0.000 C
ATOM     80   O  NT1 A 601      25.530   4.933   62.010  0.00  0.00     0.000 O
ATOM     81   C  NT1 A 601      24.310   5.659   61.800  0.00  0.00     0.000 C
ATOM     82  C2  NT1 A 601      25.560   2.848   63.190  0.00  0.00     0.000 C
ATOM     83   O  NT1 A 601      24.640   3.359   64.130  0.00  0.00     0.000 O
ATOM     84   C  NT1 A 601      25.330   4.280   65.290  0.00  0.00     0.000 C
ATOM     85  C1  NT1 A 601      25.380   1.324   62.980  0.00  0.00     0.000 C
ATOM     86  O4  NT1 A 601      25.920   0.614   64.100  0.00  0.00     0.000 O
ATOM     87  C4  NT1 A 601      25.320  -0.642   64.300  0.00  0.00     0.000 C
ATOM     88  C5  NT1 A 601      24.340  -0.646   65.540  0.00  0.00     0.000 C
ATOM     89  O5  NT1 A 601      23.760  -1.951   65.700  0.00  0.00     0.000 O
ATOM     90   C  NT1 A 601      23.250   0.326   65.370  0.00  0.00     0.000 C
ATOM     91   O  NT1 A 601      22.570  -0.075   64.250  0.00  0.00     0.000 O
ATOM     92   S  NT1 A 601      21.290   0.761   63.730  0.00  0.00     0.000 S
ATOM     93   O  NT1 A 601      21.620   1.203   62.380  0.00  0.00     0.000 OA
ATOM     94   O  NT1 A 601      21.090   1.891   64.620  0.00  0.00     0.000 OA
ATOM     95   O  NT1 A 601      20.170  -0.166   63.750  0.00  0.00     0.000 OA
ATOM     96  C3  NT1 A 601      26.400  -1.679   64.510  0.00  0.00     0.000 C
ATOM     97   O  NT1 A 601      27.350  -1.712   63.360  0.00  0.00     0.000 O
ATOM     98   C  NT1 A 601      28.810  -1.811   63.600  0.00  0.00     0.000 C
ATOM     99  C2  NT1 A 601      25.740  -3.042   64.690  0.00  0.00     0.000 C
ATOM    100   O  NT1 A 601      26.750  -4.114   64.880  0.00  0.00     0.000 O
ATOM    101   S  NT1 A 601      26.900  -5.299   63.870  0.00  0.00     0.000 S
ATOM    102   O  NT1 A 601      28.330  -5.133   63.290  0.00  0.00     0.000 OA
ATOM    103   O  NT1 A 601      25.940  -5.170   62.800  0.00  0.00     0.000 OA
ATOM    104   O  NT1 A 601      26.810  -6.561   64.570  0.00  0.00     0.000 OA
ATOM    105  C1  NT1 A 601      24.760  -3.000   65.890  0.00  0.00     0.000 C
ATOM    106   O  NT1 A 601      28.560   5.520   38.960  0.00  0.00     0.000 O
ATOM    107   C  NT1 A 601      27.190   6.096   38.530  0.00  0.00     0.000 C
ATOM    108   O  NT1 A 601      30.100   7.021   37.000  0.00  0.00     0.000 O
ATOM    109   C  NT1 A 601      29.810   5.913   35.860  0.00  0.00     0.000 C
ATOM    110   C  NT1 A 601      33.480   7.914   40.580  0.00  0.00     0.000 C
ENDROOT
BRANCH 675 111
ATOM    111  O4  NT1 A 601      29.620   4.514   41.060  0.00  0.00     0.000 O
BRANCH 111 676
ATOM    112  C1  NT1 A 601      29.520   2.008   44.560  0.00  0.00     0.000 C
ATOM    113  C2  NT1 A 601      28.150   2.717   44.070  0.00  0.00     0.000 C
ATOM    114  C3  NT1 A 601      28.470   3.274   42.470  0.00  0.00     0.000 C
ATOM    115  C4  NT1 A 601      29.730   4.227   42.540  0.00  0.00     0.000 C
ATOM    116  C5  NT1 A 601      31.090   3.563   43.260  0.00  0.00     0.000 C
ATOM    117  O5  NT1 A 601      30.430   3.287   44.570  0.00  0.00     0.000 O
ATOM    118  C4  NT1 A 601      30.020   1.235   46.870  0.00  0.00     0.000 C
ATOM    119  C5  NT1 A 601      29.110   0.652   48.020  0.00  0.00     0.000 C
ATOM    120  O5  NT1 A 601      29.950  -0.188   48.920  0.00  0.00     0.000 O
ATOM    121   C  NT1 A 601      28.020  -0.115   47.300  0.00  0.00     0.000 C
ATOM    122   O  NT1 A 601      28.210  -1.433   47.730  0.00  0.00     0.000 O
ATOM    123   S  NT1 A 601      27.330  -2.598   47.240  0.00  0.00     0.000 S
ATOM    124   O  NT1 A 601      28.320  -3.400   46.600  0.00  0.00     0.000 OA
ATOM    125   O  NT1 A 601      26.360  -2.085   46.320  0.00  0.00     0.000 OA
ATOM    126   O  NT1 A 601      26.840  -3.186   48.390  0.00  0.00     0.000 OA
ATOM    127  C3  NT1 A 601      31.240   2.050   47.610  0.00  0.00     0.000 C
ATOM    128   O  NT1 A 601      32.100   2.613   46.580  0.00  0.00     0.000 O
ATOM    129   C  NT1 A 601      33.270   3.410   46.920  0.00  0.00     0.000 C
ATOM    130  C2  NT1 A 601      32.040   0.980   48.620  0.00  0.00     0.000 C
ATOM    131   O  NT1 A 601      33.170   1.518   49.360  0.00  0.00     0.000 O
ATOM    132   C  NT1 A 601      32.950   2.884   50.260  0.00  0.00     0.000 C
ATOM    133  C1  NT1 A 601      31.030   0.387   49.680  0.00  0.00     0.000 C
ATOM    134  O4  NT1 A 601      30.530   1.497   50.540  0.00  0.00     0.000 O
ATOM    135  C4  NT1 A 601      29.820   1.272   51.840  0.00  0.00     0.000 C
ATOM    136  C5  NT1 A 601      28.510   2.285   51.970  0.00  0.00     0.000 C
ATOM    137  O5  NT1 A 601      27.840   2.069   53.230  0.00  0.00     0.000 O
ATOM    138   C  NT1 A 601      27.420   2.112   50.810  0.00  0.00     0.000 C
ATOM    139   O  NT1 A 601      26.820   0.983   50.630  0.00  0.00     0.000 OA
ATOM    140   O  NT1 A 601      27.110   3.101   50.040  0.00  0.00     0.000 OA
ATOM    141  C3  NT1 A 601      30.810   1.547   53.150  0.00  0.00     0.000 C
ATOM    142   O  NT1 A 601      32.050   0.701   53.170  0.00  0.00     0.000 O
ATOM    143   C  NT1 A 601      32.040  -0.741   53.530  0.00  0.00     0.000 C
ATOM    144  C2  NT1 A 601      29.920   1.292   54.460  0.00  0.00     0.000 C
ATOM    145   O  NT1 A 601      30.650   1.501   55.640  0.00  0.00     0.000 O
ATOM    146   C  NT1 A 601      30.390   0.425   56.590  0.00  0.00     0.000 C
ATOM    147  C1  NT1 A 601      28.650   2.211   54.390  0.00  0.00     0.000 C
ATOM    148  O4  NT1 A 601      27.900   1.970   55.520  0.00  0.00     0.000 O
ATOM    149  C4  NT1 A 601      27.180   3.027   56.170  0.00  0.00     0.000 C
ATOM    150  C5  NT1 A 601      27.950   3.576   57.480  0.00  0.00     0.000 C
ATOM    151  O5  NT1 A 601      27.150   4.646   58.140  0.00  0.00     0.000 O
ATOM    152   C  NT1 A 601      29.340   4.141   57.130  0.00  0.00     0.000 C
ATOM    153   O  NT1 A 601      29.150   5.115   56.110  0.00  0.00     0.000 O
ATOM    154   S  NT1 A 601      30.370   5.906   55.510  0.00  0.00     0.000 S
ATOM    155   O  NT1 A 601      30.300   5.576   54.120  0.00  0.00     0.000 OA
ATOM    156   O  NT1 A 601      31.630   5.439   56.190  0.00  0.00     0.000 OA
ATOM    157   O  NT1 A 601      29.980   7.244   55.740  0.00  0.00     0.000 OA
ATOM    158  C3  NT1 A 601      25.800   2.529   56.590  0.00  0.00     0.000 C
ATOM    159   O  NT1 A 601      25.120   2.051   55.450  0.00  0.00     0.000 O
ATOM    160   S  NT1 A 601      24.610   0.516   55.500  0.00  0.00     0.000 S
ATOM    161   O  NT1 A 601      23.700   0.327   56.570  0.00  0.00     0.000 OA
ATOM    162   O  NT1 A 601      24.040   0.440   54.300  0.00  0.00     0.000 OA
ATOM    163   O  NT1 A 601      25.820  -0.296   55.670  0.00  0.00     0.000 OA
ATOM    164  C2  NT1 A 601      25.020   3.718   57.320  0.00  0.00     0.000 C
ATOM    165   O  NT1 A 601      23.760   3.298   57.720  0.00  0.00     0.000 O
ATOM    166   S  NT1 A 601      22.650   4.308   58.070  0.00  0.00     0.000 S
ATOM    167   O  NT1 A 601      22.330   3.858   59.390  0.00  0.00     0.000 OA
ATOM    168   O  NT1 A 601      21.670   4.042   57.140  0.00  0.00     0.000 OA
ATOM    169   O  NT1 A 601      23.170   5.685   57.920  0.00  0.00     0.000 OA
ATOM    170  C1  NT1 A 601      25.800   4.193   58.550  0.00  0.00     0.000 C
ATOM    171  O4  NT1 A 601      25.760   3.016   59.430  0.00  0.00     0.000 O
ATOM    172  C4  NT1 A 601      26.410   3.005   60.720  0.00  0.00     0.000 C
ATOM    173  C5  NT1 A 601      26.950   1.517   61.050  0.00  0.00     0.000 C
ATOM    174  O5  NT1 A 601      25.940   0.761   61.760  0.00  0.00     0.000 O
ATOM    175   C  NT1 A 601      27.310   0.636   59.830  0.00  0.00     0.000 C
ATOM    176   O  NT1 A 601      28.510   0.287   59.670  0.00  0.00     0.000 OA
ATOM    177   O  NT1 A 601      26.400   0.258   59.000  0.00  0.00     0.000 OA
ATOM    178  C3  NT1 A 601      25.370   3.546   61.820  0.00  0.00     0.000 C
ATOM    179   O  NT1 A 601      25.530   4.933   62.010  0.00  0.00     0.000 O
ATOM    180   C  NT1 A 601      24.310   5.659   61.800  0.00  0.00     0.000 C
ATOM    181  C2  NT1 A 601      25.560   2.848   63.190  0.00  0.00     0.000 C
ATOM    182   O  NT1 A 601      24.640   3.359   64.130  0.00  0.00     0.000 O
ATOM    183   C  NT1 A 601      25.330   4.280   65.290  0.00  0.00     0.000 C
ATOM    184  C1  NT1 A 601      25.380   1.324   62.980  0.00  0.00     0.000 C
ATOM    185  O4  NT1 A 601      25.920   0.614   64.100  0.00  0.00     0.000 O
ATOM    186  C4  NT1 A 601      25.320  -0.642   64.300  0.00  0.00     0.000 C
ATOM    187  C5  NT1 A 601      24.340  -0.646   65.540  0.00  0.00     0.000 C
ATOM    188  O5  NT1 A 601      23.760  -1.951   65.700  0.00  0.00     0.000 O
ATOM    189   C  NT1 A 601      23.250   0.326   65.370  0.00  0.00     0.000 C
ATOM    190   O  NT1 A 601      22.570  -0.075   64.250  0.00  0.00     0.000 O
ATOM    191   S  NT1 A 601      21.290   0.761   63.730  0.00  0.00     0.000 S
ATOM    192   O  NT1 A 601      21.620   1.203   62.380  0.00  0.00     0.000 OA
ATOM    193   O  NT1 A 601      21.090   1.891   64.620  0.00  0.00     0.000 OA
ATOM    194   O  NT1 A 601      20.170  -0.166   63.750  0.00  0.00     0.000 OA
ATOM    195  C3  NT1 A 601      26.400  -1.679   64.510  0.00  0.00     0.000 C
ATOM    196   O  NT1 A 601      27.350  -1.712   63.360  0.00  0.00     0.000 O
ATOM    197   C  NT1 A 601      28.810  -1.811   63.600  0.00  0.00     0.000 C
ATOM    198  C2  NT1 A 601      25.740  -3.042   64.690  0.00  0.00     0.000 C
ATOM    199   O  NT1 A 601      26.750  -4.114   64.880  0.00  0.00     0.000 O
ATOM    200   S  NT1 A 601      26.900  -5.299   63.870  0.00  0.00     0.000 S
ATOM    201   O  NT1 A 601      28.330  -5.133   63.290  0.00  0.00     0.000 OA
ATOM    202   O  NT1 A 601      25.940  -5.170   62.800  0.00  0.00     0.000 OA
ATOM    203   O  NT1 A 601      26.810  -6.561   64.570  0.00  0.00     0.000 OA
ATOM    204  C1  NT1 A 601      24.760  -3.000   65.890  0.00  0.00     0.000 C
ATOM    205   O  NT1 A 601      27.020   1.834   43.920  0.00  0.00     0.000 O
ATOM    206   C  NT1 A 601      25.820   1.898   45.030  0.00  0.00     0.000 C
ATOM    207   O  NT1 A 601      27.330   3.937   41.850  0.00  0.00     0.000 O
ATOM    208   C  NT1 A 601      26.600   3.208   40.530  0.00  0.00     0.000 C
ATOM    209  C4  NT1 A 601      31.750   7.524   38.670  0.00  0.00     0.000 C
ATOM    210  C5  NT1 A 601      32.390   6.958   40.040  0.00  0.00     0.000 C
ATOM    211  O5  NT1 A 601      31.330   6.777   41.070  0.00  0.00     0.000 O
ATOM    212   C  NT1 A 601      33.480   7.914   40.580  0.00  0.00     0.000 C
ATOM    213  C3  NT1 A 601      30.670   6.547   38.200  0.00  0.00     0.000 C
ATOM    214   O  NT1 A 601      30.100   7.021   37.000  0.00  0.00     0.000 O
ATOM    215   C  NT1 A 601      29.810   5.913   35.860  0.00  0.00     0.000 C
ATOM    216  C2  NT1 A 601      29.570   6.376   39.350  0.00  0.00     0.000 C
ATOM    217   O  NT1 A 601      28.560   5.520   38.960  0.00  0.00     0.000 O
ATOM    218   C  NT1 A 601      27.190   6.096   38.530  0.00  0.00     0.000 C
ATOM    219  C1  NT1 A 601      30.230   5.858   40.650  0.00  0.00     0.000 C
ATOM    220   C  NT1 A 601      32.080   4.772   43.210  0.00  0.00     0.000 C
BRANCH 686 221
ATOM    221  O4  NT1 A 601      29.080   2.083   45.900  0.00  0.00     0.000 O
BRANCH 221 687
ATOM    222  C1  NT1 A 601      31.030   0.387   49.680  0.00  0.00     0.000 C
ATOM    223  C2  NT1 A 601      32.040   0.980   48.620  0.00  0.00     0.000 C
ATOM    224  C3  NT1 A 601      31.240   2.050   47.610  0.00  0.00     0.000 C
ATOM    225  C4  NT1 A 601      30.020   1.235   46.870  0.00  0.00     0.000 C
ATOM    226  C5  NT1 A 601      29.110   0.652   48.020  0.00  0.00     0.000 C
ATOM    227  O5  NT1 A 601      29.950  -0.188   48.920  0.00  0.00     0.000 O
ATOM    228   O  NT1 A 601      30.650   1.501   55.640  0.00  0.00     0.000 O
ATOM    229   C  NT1 A 601      30.390   0.425   56.590  0.00  0.00     0.000 C
ATOM    230  C1  NT1 A 601      28.650   2.211   54.390  0.00  0.00     0.000 C
ATOM    231  O4  NT1 A 601      27.900   1.970   55.520  0.00  0.00     0.000 O
ATOM    232  C4  NT1 A 601      27.180   3.027   56.170  0.00  0.00     0.000 C
ATOM    233  C5  NT1 A 601      27.950   3.576   57.480  0.00  0.00     0.000 C
ATOM    234  O5  NT1 A 601      27.150   4.646   58.140  0.00  0.00     0.000 O
ATOM    235   C  NT1 A 601      29.340   4.141   57.130  0.00  0.00     0.000 C
ATOM    236   O  NT1 A 601      29.150   5.115   56.110  0.00  0.00     0.000 O
ATOM    237   S  NT1 A 601      30.370   5.906   55.510  0.00  0.00     0.000 S
ATOM    238   O  NT1 A 601      30.300   5.576   54.120  0.00  0.00     0.000 OA
ATOM    239   O  NT1 A 601      31.630   5.439   56.190  0.00  0.00     0.000 OA
ATOM    240   O  NT1 A 601      29.980   7.244   55.740  0.00  0.00     0.000 OA
ATOM    241  C3  NT1 A 601      25.800   2.529   56.590  0.00  0.00     0.000 C
ATOM    242   O  NT1 A 601      25.120   2.051   55.450  0.00  0.00     0.000 O
ATOM    243   S  NT1 A 601      24.610   0.516   55.500  0.00  0.00     0.000 S
ATOM    244   O  NT1 A 601      23.700   0.327   56.570  0.00  0.00     0.000 OA
ATOM    245   O  NT1 A 601      24.040   0.440   54.300  0.00  0.00     0.000 OA
ATOM    246   O  NT1 A 601      25.820  -0.296   55.670  0.00  0.00     0.000 OA
ATOM    247  C2  NT1 A 601      25.020   3.718   57.320  0.00  0.00     0.000 C
ATOM    248   O  NT1 A 601      23.760   3.298   57.720  0.00  0.00     0.000 O
ATOM    249   S  NT1 A 601      22.650   4.308   58.070  0.00  0.00     0.000 S
ATOM    250   O  NT1 A 601      22.330   3.858   59.390  0.00  0.00     0.000 OA
ATOM    251   O  NT1 A 601      21.670   4.042   57.140  0.00  0.00     0.000 OA
ATOM    252   O  NT1 A 601      23.170   5.685   57.920  0.00  0.00     0.000 OA
ATOM    253  C1  NT1 A 601      25.800   4.193   58.550  0.00  0.00     0.000 C
ATOM    254  O4  NT1 A 601      25.760   3.016   59.430  0.00  0.00     0.000 O
ATOM    255  C4  NT1 A 601      26.410   3.005   60.720  0.00  0.00     0.000 C
ATOM    256  C5  NT1 A 601      26.950   1.517   61.050  0.00  0.00     0.000 C
ATOM    257  O5  NT1 A 601      25.940   0.761   61.760  0.00  0.00     0.000 O
ATOM    258   C  NT1 A 601      27.310   0.636   59.830  0.00  0.00     0.000 C
ATOM    259   O  NT1 A 601      28.510   0.287   59.670  0.00  0.00     0.000 OA
ATOM    260   O  NT1 A 601      26.400   0.258   59.000  0.00  0.00     0.000 OA
ATOM    261  C3  NT1 A 601      25.370   3.546   61.820  0.00  0.00     0.000 C
ATOM    262   O  NT1 A 601      25.530   4.933   62.010  0.00  0.00     0.000 O
ATOM    263   C  NT1 A 601      24.310   5.659   61.800  0.00  0.00     0.000 C
ATOM    264  C2  NT1 A 601      25.560   2.848   63.190  0.00  0.00     0.000 C
ATOM    265   O  NT1 A 601      24.640   3.359   64.130  0.00  0.00     0.000 O
ATOM    266   C  NT1 A 601      25.330   4.280   65.290  0.00  0.00     0.000 C
ATOM    267  C1  NT1 A 601      25.380   1.324   62.980  0.00  0.00     0.000 C
ATOM    268  O4  NT1 A 601      25.920   0.614   64.100  0.00  0.00     0.000 O
ATOM    269  C4  NT1 A 601      25.320  -0.642   64.300  0.00  0.00     0.000 C
ATOM    270  C5  NT1 A 601      24.340  -0.646   65.540  0.00  0.00     0.000 C
ATOM    271  O5  NT1 A 601      23.760  -1.951   65.700  0.00  0.00     0.000 O
ATOM    272   C  NT1 A 601      23.250   0.326   65.370  0.00  0.00     0.000 C
ATOM    273   O  NT1 A 601      22.570  -0.075   64.250  0.00  0.00     0.000 O
ATOM    274   S  NT1 A 601      21.290   0.761   63.730  0.00  0.00     0.000 S
ATOM    275   O  NT1 A 601      21.620   1.203   62.380  0.00  0.00     0.000 OA
ATOM    276   O  NT1 A 601      21.090   1.891   64.620  0.00  0.00     0.000 OA
ATOM    277   O  NT1 A 601      20.170  -0.166   63.750  0.00  0.00     0.000 OA
ATOM    278  C3  NT1 A 601      26.400  -1.679   64.510  0.00  0.00     0.000 C
ATOM    279   O  NT1 A 601      27.350  -1.712   63.360  0.00  0.00     0.000 O
ATOM    280   C  NT1 A 601      28.810  -1.811   63.600  0.00  0.00     0.000 C
ATOM    281  C2  NT1 A 601      25.740  -3.042   64.690  0.00  0.00     0.000 C
ATOM    282   O  NT1 A 601      26.750  -4.114   64.880  0.00  0.00     0.000 O
ATOM    283   S  NT1 A 601      26.900  -5.299   63.870  0.00  0.00     0.000 S
ATOM    284   O  NT1 A 601      28.330  -5.133   63.290  0.00  0.00     0.000 OA
ATOM    285   O  NT1 A 601      25.940  -5.170   62.800  0.00  0.00     0.000 OA
ATOM    286   O  NT1 A 601      26.810  -6.561   64.570  0.00  0.00     0.000 OA
ATOM    287  C1  NT1 A 601      24.760  -3.000   65.890  0.00  0.00     0.000 C
ATOM    288  C4  NT1 A 601      29.820   1.272   51.840  0.00  0.00     0.000 C
ATOM    289  C5  NT1 A 601      28.510   2.285   51.970  0.00  0.00     0.000 C
ATOM    290  O5  NT1 A 601      27.840   2.069   53.230  0.00  0.00     0.000 O
ATOM    291   C  NT1 A 601      27.420   2.112   50.810  0.00  0.00     0.000 C
ATOM    292   O  NT1 A 601      26.820   0.983   50.630  0.00  0.00     0.000 OA
ATOM    293   O  NT1 A 601      27.110   3.101   50.040  0.00  0.00     0.000 OA
ATOM    294  C3  NT1 A 601      30.810   1.547   53.150  0.00  0.00     0.000 C
ATOM    295   O  NT1 A 601      32.050   0.701   53.170  0.00  0.00     0.000 O
ATOM    296   C  NT1 A 601      32.040  -0.741   53.530  0.00  0.00     0.000 C
ATOM    297  C2  NT1 A 601      29.920   1.292   54.460  0.00  0.00     0.000 C
ATOM    298   O  NT1 A 601      33.170   1.518   49.360  0.00  0.00     0.000 O
ATOM    299   C  NT1 A 601      32.950   2.884   50.260  0.00  0.00     0.000 C
ATOM    300   C  NT1 A 601      33.270   3.410   46.920  0.00  0.00     0.000 C
ATOM    301   O  NT1 A 601      32.100   2.613   46.580  0.00  0.00     0.000 O
ATOM    302  C4  NT1 A 601      31.750   7.524   38.670  0.00  0.00     0.000 C
ATOM    303  C5  NT1 A 601      32.390   6.958   40.040  0.00  0.00     0.000 C
ATOM    304  O5  NT1 A 601      31.330   6.777   41.070  0.00  0.00     0.000 O
ATOM    305   C  NT1 A 601      33.480   7.914   40.580  0.00  0.00     0.000 C
ATOM    306  C3  NT1 A 601      30.670   6.547   38.200  0.00  0.00     0.000 C
ATOM    307   O  NT1 A 601      30.100   7.021   37.000  0.00  0.00     0.000 O
ATOM    308   C  NT1 A 601      29.810   5.913   35.860  0.00  0.00     0.000 C
ATOM    309  C2  NT1 A 601      29.570   6.376   39.350  0.00  0.00     0.000 C
ATOM    310   O  NT1 A 601      28.560   5.520   38.960  0.00  0.00     0.000 O
ATOM    311   C  NT1 A 601      27.190   6.096   38.530  0.00  0.00     0.000 C
ATOM    312  C1  NT1 A 601      30.230   5.858   40.650  0.00  0.00     0.000 C
ATOM    313  C4  NT1 A 601      29.730   4.227   42.540  0.00  0.00     0.000 C
ATOM    314  C5  NT1 A 601      31.090   3.563   43.260  0.00  0.00     0.000 C
ATOM    315  O5  NT1 A 601      30.430   3.287   44.570  0.00  0.00     0.000 O
ATOM    316   C  NT1 A 601      32.080   4.772   43.210  0.00  0.00     0.000 C
ATOM    317  C3  NT1 A 601      28.470   3.274   42.470  0.00  0.00     0.000 C
ATOM    318   O  NT1 A 601      27.330   3.937   41.850  0.00  0.00     0.000 O
ATOM    319   C  NT1 A 601      26.600   3.208   40.530  0.00  0.00     0.000 C
ATOM    320  C2  NT1 A 601      28.150   2.717   44.070  0.00  0.00     0.000 C
ATOM    321   O  NT1 A 601      27.020   1.834   43.920  0.00  0.00     0.000 O
ATOM    322   C  NT1 A 601      25.820   1.898   45.030  0.00  0.00     0.000 C
ATOM    323  C1  NT1 A 601      29.520   2.008   44.560  0.00  0.00     0.000 C
ATOM    324   C  NT1 A 601      28.020  -0.115   47.300  0.00  0.00     0.000 C
ATOM    325   O  NT1 A 601      28.210  -1.433   47.730  0.00  0.00     0.000 O
ATOM    326   S  NT1 A 601      27.330  -2.598   47.240  0.00  0.00     0.000 S
ATOM    327   O  NT1 A 601      28.320  -3.400   46.600  0.00  0.00     0.000 OA
ATOM    328   O  NT1 A 601      26.360  -2.085   46.320  0.00  0.00     0.000 OA
ATOM    329   O  NT1 A 601      26.840  -3.186   48.390  0.00  0.00     0.000 OA
BRANCH 702 330
ATOM    330  O4  NT1 A 601      30.530   1.497   50.540  0.00  0.00     0.000 O
BRANCH 330 703
ATOM    331  C1  NT1 A 601      28.650   2.211   54.390  0.00  0.00     0.000 C
ATOM    332  C2  NT1 A 601      29.920   1.292   54.460  0.00  0.00     0.000 C
ATOM    333  C3  NT1 A 601      30.810   1.547   53.150  0.00  0.00     0.000 C
ATOM    334  C4  NT1 A 601      29.820   1.272   51.840  0.00  0.00     0.000 C
ATOM    335  C5  NT1 A 601      28.510   2.285   51.970  0.00  0.00     0.000 C
ATOM    336  O5  NT1 A 601      27.840   2.069   53.230  0.00  0.00     0.000 O
ATOM    337  C4  NT1 A 601      27.180   3.027   56.170  0.00  0.00     0.000 C
ATOM    338  C5  NT1 A 601      27.950   3.576   57.480  0.00  0.00     0.000 C
ATOM    339  O5  NT1 A 601      27.150   4.646   58.140  0.00  0.00     0.000 O
ATOM    340   C  NT1 A 601      29.340   4.141   57.130  0.00  0.00     0.000 C
ATOM    341   O  NT1 A 601      29.150   5.115   56.110  0.00  0.00     0.000 O
ATOM    342   S  NT1 A 601      30.370   5.906   55.510  0.00  0.00     0.000 S
ATOM    343   O  NT1 A 601      30.300   5.576   54.120  0.00  0.00     0.000 OA
ATOM    344   O  NT1 A 601      31.630   5.439   56.190  0.00  0.00     0.000 OA
ATOM    345   O  NT1 A 601      29.980   7.244   55.740  0.00  0.00     0.000 OA
ATOM    346  C3  NT1 A 601      25.800   2.529   56.590  0.00  0.00     0.000 C
ATOM    347   O  NT1 A 601      25.120   2.051   55.450  0.00  0.00     0.000 O
ATOM    348   S  NT1 A 601      24.610   0.516   55.500  0.00  0.00     0.000 S
ATOM    349   O  NT1 A 601      23.700   0.327   56.570  0.00  0.00     0.000 OA
ATOM    350   O  NT1 A 601      24.040   0.440   54.300  0.00  0.00     0.000 OA
ATOM    351   O  NT1 A 601      25.820  -0.296   55.670  0.00  0.00     0.000 OA
ATOM    352  C2  NT1 A 601      25.020   3.718   57.320  0.00  0.00     0.000 C
ATOM    353   O  NT1 A 601      23.760   3.298   57.720  0.00  0.00     0.000 O
ATOM    354   S  NT1 A 601      22.650   4.308   58.070  0.00  0.00     0.000 S
ATOM    355   O  NT1 A 601      22.330   3.858   59.390  0.00  0.00     0.000 OA
ATOM    356   O  NT1 A 601      21.670   4.042   57.140  0.00  0.00     0.000 OA
ATOM    357   O  NT1 A 601      23.170   5.685   57.920  0.00  0.00     0.000 OA
ATOM    358  C1  NT1 A 601      25.800   4.193   58.550  0.00  0.00     0.000 C
ATOM    359  O4  NT1 A 601      25.760   3.016   59.430  0.00  0.00     0.000 O
ATOM    360  C4  NT1 A 601      26.410   3.005   60.720  0.00  0.00     0.000 C
ATOM    361  C5  NT1 A 601      26.950   1.517   61.050  0.00  0.00     0.000 C
ATOM    362  O5  NT1 A 601      25.940   0.761   61.760  0.00  0.00     0.000 O
ATOM    363   C  NT1 A 601      27.310   0.636   59.830  0.00  0.00     0.000 C
ATOM    364   O  NT1 A 601      28.510   0.287   59.670  0.00  0.00     0.000 OA
ATOM    365   O  NT1 A 601      26.400   0.258   59.000  0.00  0.00     0.000 OA
ATOM    366  C3  NT1 A 601      25.370   3.546   61.820  0.00  0.00     0.000 C
ATOM    367   O  NT1 A 601      25.530   4.933   62.010  0.00  0.00     0.000 O
ATOM    368   C  NT1 A 601      24.310   5.659   61.800  0.00  0.00     0.000 C
ATOM    369  C2  NT1 A 601      25.560   2.848   63.190  0.00  0.00     0.000 C
ATOM    370   O  NT1 A 601      24.640   3.359   64.130  0.00  0.00     0.000 O
ATOM    371   C  NT1 A 601      25.330   4.280   65.290  0.00  0.00     0.000 C
ATOM    372  C1  NT1 A 601      25.380   1.324   62.980  0.00  0.00     0.000 C
ATOM    373  O4  NT1 A 601      25.920   0.614   64.100  0.00  0.00     0.000 O
ATOM    374  C4  NT1 A 601      25.320  -0.642   64.300  0.00  0.00     0.000 C
ATOM    375  C5  NT1 A 601      24.340  -0.646   65.540  0.00  0.00     0.000 C
ATOM    376  O5  NT1 A 601      23.760  -1.951   65.700  0.00  0.00     0.000 O
ATOM    377   C  NT1 A 601      23.250   0.326   65.370  0.00  0.00     0.000 C
ATOM    378   O  NT1 A 601      22.570  -0.075   64.250  0.00  0.00     0.000 O
ATOM    379   S  NT1 A 601      21.290   0.761   63.730  0.00  0.00     0.000 S
ATOM    380   O  NT1 A 601      21.620   1.203   62.380  0.00  0.00     0.000 OA
ATOM    381   O  NT1 A 601      21.090   1.891   64.620  0.00  0.00     0.000 OA
ATOM    382   O  NT1 A 601      20.170  -0.166   63.750  0.00  0.00     0.000 OA
ATOM    383  C3  NT1 A 601      26.400  -1.679   64.510  0.00  0.00     0.000 C
ATOM    384   O  NT1 A 601      27.350  -1.712   63.360  0.00  0.00     0.000 O
ATOM    385   C  NT1 A 601      28.810  -1.811   63.600  0.00  0.00     0.000 C
ATOM    386  C2  NT1 A 601      25.740  -3.042   64.690  0.00  0.00     0.000 C
ATOM    387   O  NT1 A 601      26.750  -4.114   64.880  0.00  0.00     0.000 O
ATOM    388   S  NT1 A 601      26.900  -5.299   63.870  0.00  0.00     0.000 S
ATOM    389   O  NT1 A 601      28.330  -5.133   63.290  0.00  0.00     0.000 OA
ATOM    390   O  NT1 A 601      25.940  -5.170   62.800  0.00  0.00     0.000 OA
ATOM    391   O  NT1 A 601      26.810  -6.561   64.570  0.00  0.00     0.000 OA
ATOM    392  C1  NT1 A 601      24.760  -3.000   65.890  0.00  0.00     0.000 C
ATOM    393   O  NT1 A 601      30.650   1.501   55.640  0.00  0.00     0.000 O
ATOM    394   C  NT1 A 601      30.390   0.425   56.590  0.00  0.00     0.000 C
ATOM    395   O  NT1 A 601      32.050   0.701   53.170  0.00  0.00     0.000 O
ATOM    396   C  NT1 A 601      32.040  -0.741   53.530  0.00  0.00     0.000 C
ATOM    397  C4  NT1 A 601      31.750   7.524   38.670  0.00  0.00     0.000 C
ATOM    398  C5  NT1 A 601      32.390   6.958   40.040  0.00  0.00     0.000 C
ATOM    399  O5  NT1 A 601      31.330   6.777   41.070  0.00  0.00     0.000 O
ATOM    400   C  NT1 A 601      33.480   7.914   40.580  0.00  0.00     0.000 C
ATOM    401  C3  NT1 A 601      30.670   6.547   38.200  0.00  0.00     0.000 C
ATOM    402   O  NT1 A 601      30.100   7.021   37.000  0.00  0.00     0.000 O
ATOM    403   C  NT1 A 601      29.810   5.913   35.860  0.00  0.00     0.000 C
ATOM    404  C2  NT1 A 601      29.570   6.376   39.350  0.00  0.00     0.000 C
ATOM    405   O  NT1 A 601      28.560   5.520   38.960  0.00  0.00     0.000 O
ATOM    406   C  NT1 A 601      27.190   6.096   38.530  0.00  0.00     0.000 C
ATOM    407  C1  NT1 A 601      30.230   5.858   40.650  0.00  0.00     0.000 C
ATOM    408  C4  NT1 A 601      29.730   4.227   42.540  0.00  0.00     0.000 C
ATOM    409  C5  NT1 A 601      31.090   3.563   43.260  0.00  0.00     0.000 C
ATOM    410  O5  NT1 A 601      30.430   3.287   44.570  0.00  0.00     0.000 O
ATOM    411   C  NT1 A 601      32.080   4.772   43.210  0.00  0.00     0.000 C
ATOM    412  C3  NT1 A 601      28.470   3.274   42.470  0.00  0.00     0.000 C
ATOM    413   O  NT1 A 601      27.330   3.937   41.850  0.00  0.00     0.000 O
ATOM    414   C  NT1 A 601      26.600   3.208   40.530  0.00  0.00     0.000 C
ATOM    415  C2  NT1 A 601      28.150   2.717   44.070  0.00  0.00     0.000 C
ATOM    416   O  NT1 A 601      27.020   1.834   43.920  0.00  0.00     0.000 O
ATOM    417   C  NT1 A 601      25.820   1.898   45.030  0.00  0.00     0.000 C
ATOM    418  C1  NT1 A 601      29.520   2.008   44.560  0.00  0.00     0.000 C
ATOM    419  C4  NT1 A 601      30.020   1.235   46.870  0.00  0.00     0.000 C
ATOM    420  C5  NT1 A 601      29.110   0.652   48.020  0.00  0.00     0.000 C
ATOM    421  O5  NT1 A 601      29.950  -0.188   48.920  0.00  0.00     0.000 O
ATOM    422   C  NT1 A 601      28.020  -0.115   47.300  0.00  0.00     0.000 C
ATOM    423   O  NT1 A 601      28.210  -1.433   47.730  0.00  0.00     0.000 O
ATOM    424   S  NT1 A 601      27.330  -2.598   47.240  0.00  0.00     0.000 S
ATOM    425   O  NT1 A 601      28.320  -3.400   46.600  0.00  0.00     0.000 OA
ATOM    426   O  NT1 A 601      26.360  -2.085   46.320  0.00  0.00     0.000 OA
ATOM    427   O  NT1 A 601      26.840  -3.186   48.390  0.00  0.00     0.000 OA
ATOM    428  C3  NT1 A 601      31.240   2.050   47.610  0.00  0.00     0.000 C
ATOM    429   O  NT1 A 601      32.100   2.613   46.580  0.00  0.00     0.000 O
ATOM    430   C  NT1 A 601      33.270   3.410   46.920  0.00  0.00     0.000 C
ATOM    431  C2  NT1 A 601      32.040   0.980   48.620  0.00  0.00     0.000 C
ATOM    432   O  NT1 A 601      33.170   1.518   49.360  0.00  0.00     0.000 O
ATOM    433   C  NT1 A 601      32.950   2.884   50.260  0.00  0.00     0.000 C
ATOM    434  C1  NT1 A 601      31.030   0.387   49.680  0.00  0.00     0.000 C
ATOM    435   C  NT1 A 601      27.420   2.112   50.810  0.00  0.00     0.000 C
ATOM    436   O  NT1 A 601      26.820   0.983   50.630  0.00  0.00     0.000 OA
ATOM    437   O  NT1 A 601      27.110   3.101   50.040  0.00  0.00     0.000 OA
BRANCH 715 438
ATOM    438  O4  NT1 A 601      27.900   1.970   55.520  0.00  0.00     0.000 O
BRANCH 438 716
ATOM    439  C1  NT1 A 601      25.800   4.193   58.550  0.00  0.00     0.000 C
ATOM    440  C2  NT1 A 601      25.020   3.718   57.320  0.00  0.00     0.000 C
ATOM    441  C3  NT1 A 601      25.800   2.529   56.590  0.00  0.00     0.000 C
ATOM    442  C4  NT1 A 601      27.180   3.027   56.170  0.00  0.00     0.000 C
ATOM    443  C5  NT1 A 601      27.950   3.576   57.480  0.00  0.00     0.000 C
ATOM    444  O5  NT1 A 601      27.150   4.646   58.140  0.00  0.00     0.000 O
ATOM    445  C4  NT1 A 601      26.410   3.005   60.720  0.00  0.00     0.000 C
ATOM    446  C5  NT1 A 601      26.950   1.517   61.050  0.00  0.00     0.000 C
ATOM    447  O5  NT1 A 601      25.940   0.761   61.760  0.00  0.00     0.000 O
ATOM    448   C  NT1 A 601      27.310   0.636   59.830  0.00  0.00     0.000 C
ATOM    449   O  NT1 A 601      28.510   0.287   59.670  0.00  0.00     0.000 OA
ATOM    450   O  NT1 A 601      26.400   0.258   59.000  0.00  0.00     0.000 OA
ATOM    451  C3  NT1 A 601      25.370   3.546   61.820  0.00  0.00     0.000 C
ATOM    452   O  NT1 A 601      25.530   4.933   62.010  0.00  0.00     0.000 O
ATOM    453   C  NT1 A 601      24.310   5.659   61.800  0.00  0.00     0.000 C
ATOM    454  C2  NT1 A 601      25.560   2.848   63.190  0.00  0.00     0.000 C
ATOM    455   O  NT1 A 601      24.640   3.359   64.130  0.00  0.00     0.000 O
ATOM    456   C  NT1 A 601      25.330   4.280   65.290  0.00  0.00     0.000 C
ATOM    457  C1  NT1 A 601      25.380   1.324   62.980  0.00  0.00     0.000 C
ATOM    458  O4  NT1 A 601      25.920   0.614   64.100  0.00  0.00     0.000 O
ATOM    459  C4  NT1 A 601      25.320  -0.642   64.300  0.00  0.00     0.000 C
ATOM    460  C5  NT1 A 601      24.340  -0.646   65.540  0.00  0.00     0.000 C
ATOM    461  O5  NT1 A 601      23.760  -1.951   65.700  0.00  0.00     0.000 O
ATOM    462   C  NT1 A 601      23.250   0.326   65.370  0.00  0.00     0.000 C
ATOM    463   O  NT1 A 601      22.570  -0.075   64.250  0.00  0.00     0.000 O
ATOM    464   S  NT1 A 601      21.290   0.761   63.730  0.00  0.00     0.000 S
ATOM    465   O  NT1 A 601      21.620   1.203   62.380  0.00  0.00     0.000 OA
ATOM    466   O  NT1 A 601      21.090   1.891   64.620  0.00  0.00     0.000 OA
ATOM    467   O  NT1 A 601      20.170  -0.166   63.750  0.00  0.00     0.000 OA
ATOM    468  C3  NT1 A 601      26.400  -1.679   64.510  0.00  0.00     0.000 C
ATOM    469   O  NT1 A 601      27.350  -1.712   63.360  0.00  0.00     0.000 O
ATOM    470   C  NT1 A 601      28.810  -1.811   63.600  0.00  0.00     0.000 C
ATOM    471  C2  NT1 A 601      25.740  -3.042   64.690  0.00  0.00     0.000 C
ATOM    472   O  NT1 A 601      26.750  -4.114   64.880  0.00  0.00     0.000 O
ATOM    473   S  NT1 A 601      26.900  -5.299   63.870  0.00  0.00     0.000 S
ATOM    474   O  NT1 A 601      28.330  -5.133   63.290  0.00  0.00     0.000 OA
ATOM    475   O  NT1 A 601      25.940  -5.170   62.800  0.00  0.00     0.000 OA
ATOM    476   O  NT1 A 601      26.810  -6.561   64.570  0.00  0.00     0.000 OA
ATOM    477  C1  NT1 A 601      24.760  -3.000   65.890  0.00  0.00     0.000 C
ATOM    478   O  NT1 A 601      23.760   3.298   57.720  0.00  0.00     0.000 O
ATOM    479   S  NT1 A 601      22.650   4.308   58.070  0.00  0.00     0.000 S
ATOM    480   O  NT1 A 601      22.330   3.858   59.390  0.00  0.00     0.000 OA
ATOM    481   O  NT1 A 601      21.670   4.042   57.140  0.00  0.00     0.000 OA
ATOM    482   O  NT1 A 601      23.170   5.685   57.920  0.00  0.00     0.000 OA
ATOM    483   O  NT1 A 601      25.120   2.051   55.450  0.00  0.00     0.000 O
ATOM    484   S  NT1 A 601      24.610   0.516   55.500  0.00  0.00     0.000 S
ATOM    485   O  NT1 A 601      23.700   0.327   56.570  0.00  0.00     0.000 OA
ATOM    486   O  NT1 A 601      24.040   0.440   54.300  0.00  0.00     0.000 OA
ATOM    487   O  NT1 A 601      25.820  -0.296   55.670  0.00  0.00     0.000 OA
ATOM    488   O  NT1 A 601      30.650   1.501   55.640  0.00  0.00     0.000 O
ATOM    489   C  NT1 A 601      30.390   0.425   56.590  0.00  0.00     0.000 C
ATOM    490  C1  NT1 A 601      28.650   2.211   54.390  0.00  0.00     0.000 C
ATOM    491  C4  NT1 A 601      31.750   7.524   38.670  0.00  0.00     0.000 C
ATOM    492  C5  NT1 A 601      32.390   6.958   40.040  0.00  0.00     0.000 C
ATOM    493  O5  NT1 A 601      31.330   6.777   41.070  0.00  0.00     0.000 O
ATOM    494   C  NT1 A 601      33.480   7.914   40.580  0.00  0.00     0.000 C
ATOM    495  C3  NT1 A 601      30.670   6.547   38.200  0.00  0.00     0.000 C
ATOM    496   O  NT1 A 601      30.100   7.021   37.000  0.00  0.00     0.000 O
ATOM    497   C  NT1 A 601      29.810   5.913   35.860  0.00  0.00     0.000 C
ATOM    498  C2  NT1 A 601      29.570   6.376   39.350  0.00  0.00     0.000 C
ATOM    499   O  NT1 A 601      28.560   5.520   38.960  0.00  0.00     0.000 O
ATOM    500   C  NT1 A 601      27.190   6.096   38.530  0.00  0.00     0.000 C
ATOM    501  C1  NT1 A 601      30.230   5.858   40.650  0.00  0.00     0.000 C
ATOM    502  C4  NT1 A 601      29.730   4.227   42.540  0.00  0.00     0.000 C
ATOM    503  C5  NT1 A 601      31.090   3.563   43.260  0.00  0.00     0.000 C
ATOM    504  O5  NT1 A 601      30.430   3.287   44.570  0.00  0.00     0.000 O
ATOM    505   C  NT1 A 601      32.080   4.772   43.210  0.00  0.00     0.000 C
ATOM    506  C3  NT1 A 601      28.470   3.274   42.470  0.00  0.00     0.000 C
ATOM    507   O  NT1 A 601      27.330   3.937   41.850  0.00  0.00     0.000 O
ATOM    508   C  NT1 A 601      26.600   3.208   40.530  0.00  0.00     0.000 C
ATOM    509  C2  NT1 A 601      28.150   2.717   44.070  0.00  0.00     0.000 C
ATOM    510   O  NT1 A 601      27.020   1.834   43.920  0.00  0.00     0.000 O
ATOM    511   C  NT1 A 601      25.820   1.898   45.030  0.00  0.00     0.000 C
ATOM    512  C1  NT1 A 601      29.520   2.008   44.560  0.00  0.00     0.000 C
ATOM    513  C4  NT1 A 601      30.020   1.235   46.870  0.00  0.00     0.000 C
ATOM    514  C5  NT1 A 601      29.110   0.652   48.020  0.00  0.00     0.000 C
ATOM    515  O5  NT1 A 601      29.950  -0.188   48.920  0.00  0.00     0.000 O
ATOM    516   C  NT1 A 601      28.020  -0.115   47.300  0.00  0.00     0.000 C
ATOM    517   O  NT1 A 601      28.210  -1.433   47.730  0.00  0.00     0.000 O
ATOM    518   S  NT1 A 601      27.330  -2.598   47.240  0.00  0.00     0.000 S
ATOM    519   O  NT1 A 601      28.320  -3.400   46.600  0.00  0.00     0.000 OA
ATOM    520   O  NT1 A 601      26.360  -2.085   46.320  0.00  0.00     0.000 OA
ATOM    521   O  NT1 A 601      26.840  -3.186   48.390  0.00  0.00     0.000 OA
ATOM    522  C3  NT1 A 601      31.240   2.050   47.610  0.00  0.00     0.000 C
ATOM    523   O  NT1 A 601      32.100   2.613   46.580  0.00  0.00     0.000 O
ATOM    524   C  NT1 A 601      33.270   3.410   46.920  0.00  0.00     0.000 C
ATOM    525  C2  NT1 A 601      32.040   0.980   48.620  0.00  0.00     0.000 C
ATOM    526   O  NT1 A 601      33.170   1.518   49.360  0.00  0.00     0.000 O
ATOM    527   C  NT1 A 601      32.950   2.884   50.260  0.00  0.00     0.000 C
ATOM    528  C1  NT1 A 601      31.030   0.387   49.680  0.00  0.00     0.000 C
ATOM    529  C4  NT1 A 601      29.820   1.272   51.840  0.00  0.00     0.000 C
ATOM    530  C5  NT1 A 601      28.510   2.285   51.970  0.00  0.00     0.000 C
ATOM    531  O5  NT1 A 601      27.840   2.069   53.230  0.00  0.00     0.000 O
ATOM    532   C  NT1 A 601      27.420   2.112   50.810  0.00  0.00     0.000 C
ATOM    533   O  NT1 A 601      26.820   0.983   50.630  0.00  0.00     0.000 OA
ATOM    534   O  NT1 A 601      27.110   3.101   50.040  0.00  0.00     0.000 OA
ATOM    535  C3  NT1 A 601      30.810   1.547   53.150  0.00  0.00     0.000 C
ATOM    536   O  NT1 A 601      32.050   0.701   53.170  0.00  0.00     0.000 O
ATOM    537   C  NT1 A 601      32.040  -0.741   53.530  0.00  0.00     0.000 C
ATOM    538  C2  NT1 A 601      29.920   1.292   54.460  0.00  0.00     0.000 C
ATOM    539   C  NT1 A 601      29.340   4.141   57.130  0.00  0.00     0.000 C
ATOM    540   O  NT1 A 601      29.150   5.115   56.110  0.00  0.00     0.000 O
ATOM    541   S  NT1 A 601      30.370   5.906   55.510  0.00  0.00     0.000 S
ATOM    542   O  NT1 A 601      30.300   5.576   54.120  0.00  0.00     0.000 OA
ATOM    543   O  NT1 A 601      31.630   5.439   56.190  0.00  0.00     0.000 OA
ATOM    544   O  NT1 A 601      29.980   7.244   55.740  0.00  0.00     0.000 OA
BRANCH 737 545
ATOM    545  O4  NT1 A 601      25.760   3.016   59.430  0.00  0.00     0.000 O
BRANCH 545 738
ATOM    546  C1  NT1 A 601      25.380   1.324   62.980  0.00  0.00     0.000 C
ATOM    547  C2  NT1 A 601      25.560   2.848   63.190  0.00  0.00     0.000 C
ATOM    548  C3  NT1 A 601      25.370   3.546   61.820  0.00  0.00     0.000 C
ATOM    549  C4  NT1 A 601      26.410   3.005   60.720  0.00  0.00     0.000 C
ATOM    550  C5  NT1 A 601      26.950   1.517   61.050  0.00  0.00     0.000 C
ATOM    551  O5  NT1 A 601      25.940   0.761   61.760  0.00  0.00     0.000 O
ATOM    552  C4  NT1 A 601      25.320  -0.642   64.300  0.00  0.00     0.000 C
ATOM    553  C5  NT1 A 601      24.340  -0.646   65.540  0.00  0.00     0.000 C
ATOM    554  O5  NT1 A 601      23.760  -1.951   65.700  0.00  0.00     0.000 O
ATOM    555   C  NT1 A 601      23.250   0.326   65.370  0.00  0.00     0.000 C
ATOM    556   O  NT1 A 601      22.570  -0.075   64.250  0.00  0.00     0.000 O
ATOM    557   S  NT1 A 601      21.290   0.761   63.730  0.00  0.00     0.000 S
ATOM    558   O  NT1 A 601      21.620   1.203   62.380  0.00  0.00     0.000 OA
ATOM    559   O  NT1 A 601      21.090   1.891   64.620  0.00  0.00     0.000 OA
ATOM    560   O  NT1 A 601      20.170  -0.166   63.750  0.00  0.00     0.000 OA
ATOM    561  C3  NT1 A 601      26.400  -1.679   64.510  0.00  0.00     0.000 C
ATOM    562   O  NT1 A 601      27.350  -1.712   63.360  0.00  0.00     0.000 O
ATOM    563   C  NT1 A 601      28.810  -1.811   63.600  0.00  0.00     0.000 C
ATOM    564  C2  NT1 A 601      25.740  -3.042   64.690  0.00  0.00     0.000 C
ATOM    565   O  NT1 A 601      26.750  -4.114   64.880  0.00  0.00     0.000 O
ATOM    566   S  NT1 A 601      26.900  -5.299   63.870  0.00  0.00     0.000 S
ATOM    567   O  NT1 A 601      28.330  -5.133   63.290  0.00  0.00     0.000 OA
ATOM    568   O  NT1 A 601      25.940  -5.170   62.800  0.00  0.00     0.000 OA
ATOM    569   O  NT1 A 601      26.810  -6.561   64.570  0.00  0.00     0.000 OA
ATOM    570  C1  NT1 A 601      24.760  -3.000   65.890  0.00  0.00     0.000 C
ATOM    571   O  NT1 A 601      24.640   3.359   64.130  0.00  0.00     0.000 O
ATOM    572   C  NT1 A 601      25.330   4.280   65.290  0.00  0.00     0.000 C
ATOM    573   O  NT1 A 601      25.530   4.933   62.010  0.00  0.00     0.000 O
ATOM    574   C  NT1 A 601      24.310   5.659   61.800  0.00  0.00     0.000 C
ATOM    575  C4  NT1 A 601      31.750   7.524   38.670  0.00  0.00     0.000 C
ATOM    576  C5  NT1 A 601      32.390   6.958   40.040  0.00  0.00     0.000 C
ATOM    577  O5  NT1 A 601      31.330   6.777   41.070  0.00  0.00     0.000 O
ATOM    578   C  NT1 A 601      33.480   7.914   40.580  0.00  0.00     0.000 C
ATOM    579  C3  NT1 A 601      30.670   6.547   38.200  0.00  0.00     0.000 C
ATOM    580   O  NT1 A 601      30.100   7.021   37.000  0.00  0.00     0.000 O
ATOM    581   C  NT1 A 601      29.810   5.913   35.860  0.00  0.00     0.000 C
ATOM    582  C2  NT1 A 601      29.570   6.376   39.350  0.00  0.00     0.000 C
ATOM    583   O  NT1 A 601      28.560   5.520   38.960  0.00  0.00     0.000 O
ATOM    584   C  NT1 A 601      27.190   6.096   38.530  0.00  0.00     0.000 C
ATOM    585  C1  NT1 A 601      30.230   5.858   40.650  0.00  0.00     0.000 C
ATOM    586  C4  NT1 A 601      29.730   4.227   42.540  0.00  0.00     0.000 C
ATOM    587  C5  NT1 A 601      31.090   3.563   43.260  0.00  0.00     0.000 C
ATOM    588  O5  NT1 A 601      30.430   3.287   44.570  0.00  0.00     0.000 O
ATOM    589   C  NT1 A 601      32.080   4.772   43.210  0.00  0.00     0.000 C
ATOM    590  C3  NT1 A 601      28.470   3.274   42.470  0.00  0.00     0.000 C
ATOM    591   O  NT1 A 601      27.330   3.937   41.850  0.00  0.00     0.000 O
ATOM    592   C  NT1 A 601      26.600   3.208   40.530  0.00  0.00     0.000 C
ATOM    593  C2  NT1 A 601      28.150   2.717   44.070  0.00  0.00     0.000 C
ATOM    594   O  NT1 A 601      27.020   1.834   43.920  0.00  0.00     0.000 O
ATOM    595   C  NT1 A 601      25.820   1.898   45.030  0.00  0.00     0.000 C
ATOM    596  C1  NT1 A 601      29.520   2.008   44.560  0.00  0.00     0.000 C
ATOM    597  C4  NT1 A 601      30.020   1.235   46.870  0.00  0.00     0.000 C
ATOM    598  C5  NT1 A 601      29.110   0.652   48.020  0.00  0.00     0.000 C
ATOM    599  O5  NT1 A 601      29.950  -0.188   48.920  0.00  0.00     0.000 O
ATOM    600   C  NT1 A 601      28.020  -0.115   47.300  0.00  0.00     0.000 C
ATOM    601   O  NT1 A 601      28.210  -1.433   47.730  0.00  0.00     0.000 O
ATOM    602   S  NT1 A 601      27.330  -2.598   47.240  0.00  0.00     0.000 S
ATOM    603   O  NT1 A 601      28.320  -3.400   46.600  0.00  0.00     0.000 OA
ATOM    604   O  NT1 A 601      26.360  -2.085   46.320  0.00  0.00     0.000 OA
ATOM    605   O  NT1 A 601      26.840  -3.186   48.390  0.00  0.00     0.000 OA
ATOM    606  C3  NT1 A 601      31.240   2.050   47.610  0.00  0.00     0.000 C
ATOM    607   O  NT1 A 601      32.100   2.613   46.580  0.00  0.00     0.000 O
ATOM    608   C  NT1 A 601      33.270   3.410   46.920  0.00  0.00     0.000 C
ATOM    609  C2  NT1 A 601      32.040   0.980   48.620  0.00  0.00     0.000 C
ATOM    610   O  NT1 A 601      33.170   1.518   49.360  0.00  0.00     0.000 O
ATOM    611   C  NT1 A 601      32.950   2.884   50.260  0.00  0.00     0.000 C
ATOM    612  C1  NT1 A 601      31.030   0.387   49.680  0.00  0.00     0.000 C
ATOM    613  C4  NT1 A 601      29.820   1.272   51.840  0.00  0.00     0.000 C
ATOM    614  C5  NT1 A 601      28.510   2.285   51.970  0.00  0.00     0.000 C
ATOM    615  O5  NT1 A 601      27.840   2.069   53.230  0.00  0.00     0.000 O
ATOM    616   C  NT1 A 601      27.420   2.112   50.810  0.00  0.00     0.000 C
ATOM    617   O  NT1 A 601      26.820   0.983   50.630  0.00  0.00     0.000 OA
ATOM    618   O  NT1 A 601      27.110   3.101   50.040  0.00  0.00     0.000 OA
ATOM    619  C3  NT1 A 601      30.810   1.547   53.150  0.00  0.00     0.000 C
ATOM    620   O  NT1 A 601      32.050   0.701   53.170  0.00  0.00     0.000 O
ATOM    621   C  NT1 A 601      32.040  -0.741   53.530  0.00  0.00     0.000 C
ATOM    622  C2  NT1 A 601      29.920   1.292   54.460  0.00  0.00     0.000 C
ATOM    623   O  NT1 A 601      30.650   1.501   55.640  0.00  0.00     0.000 O
ATOM    624   C  NT1 A 601      30.390   0.425   56.590  0.00  0.00     0.000 C
ATOM    625  C1  NT1 A 601      28.650   2.211   54.390  0.00  0.00     0.000 C
ATOM    626  C4  NT1 A 601      27.180   3.027   56.170  0.00  0.00     0.000 C
ATOM    627  C5  NT1 A 601      27.950   3.576   57.480  0.00  0.00     0.000 C
ATOM    628  O5  NT1 A 601      27.150   4.646   58.140  0.00  0.00     0.000 O
ATOM    629   C  NT1 A 601      29.340   4.141   57.130  0.00  0.00     0.000 C
ATOM    630   O  NT1 A 601      29.150   5.115   56.110  0.00  0.00     0.000 O
ATOM    631   S  NT1 A 601      30.370   5.906   55.510  0.00  0.00     0.000 S
ATOM    632   O  NT1 A 601      30.300   5.576   54.120  0.00  0.00     0.000 OA
ATOM    633   O  NT1 A 601      31.630   5.439   56.190  0.00  0.00     0.000 OA
ATOM    634   O  NT1 A 601      29.980   7.244   55.740  0.00  0.00     0.000 OA
ATOM    635  C3  NT1 A 601      25.800   2.529   56.590  0.00  0.00     0.000 C
ATOM    636   O  NT1 A 601      25.120   2.051   55.450  0.00  0.00     0.000 O
ATOM    637   S  NT1 A 601      24.610   0.516   55.500  0.00  0.00     0.000 S
ATOM    638   O  NT1 A 601      23.700   0.327   56.570  0.00  0.00     0.000 OA
ATOM    639   O  NT1 A 601      24.040   0.440   54.300  0.00  0.00     0.000 OA
ATOM    640   O  NT1 A 601      25.820  -0.296   55.670  0.00  0.00     0.000 OA
ATOM    641  C2  NT1 A 601      25.020   3.718   57.320  0.00  0.00     0.000 C
ATOM    642   O  NT1 A 601      23.760   3.298   57.720  0.00  0.00     0.000 O
ATOM    643   S  NT1 A 601      22.650   4.308   58.070  0.00  0.00     0.000 S
ATOM    644   O  NT1 A 601      22.330   3.858   59.390  0.00  0.00     0.000 OA
ATOM    645   O  NT1 A 601      21.670   4.042   57.140  0.00  0.00     0.000 OA
ATOM    646   O  NT1 A 601      23.170   5.685   57.920  0.00  0.00     0.000 OA
ATOM    647  C1  NT1 A 601      25.800   4.193   58.550  0.00  0.00     0.000 C
ATOM    648   O  NT1 A 601      26.400   0.258   59.000  0.00  0.00     0.000 OA
ATOM    649   C  NT1 A 601      27.310   0.636   59.830  0.00  0.00     0.000 C
ATOM    650   O  NT1 A 601      28.510   0.287   59.670  0.00  0.00     0.000 OA
BRANCH 750 651
ATOM    651  O4  NT1 A 601      25.920   0.614   64.100  0.00  0.00     0.000 O
BRANCH 651 655
ATOM    652  C1  NT1 A 601      24.760  -3.000   65.890  0.00  0.00     0.000 C
ATOM    653  C2  NT1 A 601      25.740  -3.042   64.690  0.00  0.00     0.000 C
ATOM    654  C3  NT1 A 601      26.400  -1.679   64.510  0.00  0.00     0.000 C
ATOM    655  C4  NT1 A 601      25.320  -0.642   64.300  0.00  0.00     0.000 C
ATOM    656  C5  NT1 A 601      24.340  -0.646   65.540  0.00  0.00     0.000 C
ATOM    657  O5  NT1 A 601      23.760  -1.951   65.700  0.00  0.00     0.000 O
ATOM    658   O  NT1 A 601      26.750  -4.114   64.880  0.00  0.00     0.000 O
ATOM    659   S  NT1 A 601      26.900  -5.299   63.870  0.00  0.00     0.000 S
ATOM    660   O  NT1 A 601      28.330  -5.133   63.290  0.00  0.00     0.000 OA
ATOM    661   O  NT1 A 601      25.940  -5.170   62.800  0.00  0.00     0.000 OA
ATOM    662   O  NT1 A 601      26.810  -6.561   64.570  0.00  0.00     0.000 OA
ATOM    663   O  NT1 A 601      27.350  -1.712   63.360  0.00  0.00     0.000 O
ATOM    664   C  NT1 A 601      28.810  -1.811   63.600  0.00  0.00     0.000 C
ATOM    665  C4  NT1 A 601      31.750   7.524   38.670  0.00  0.00     0.000 C
ATOM    666  C5  NT1 A 601      32.390   6.958   40.040  0.00  0.00     0.000 C
ATOM    667  O5  NT1 A 601      31.330   6.777   41.070  0.00  0.00     0.000 O
ATOM    668   C  NT1 A 601      33.480   7.914   40.580  0.00  0.00     0.000 C
ATOM    669  C3  NT1 A 601      30.670   6.547   38.200  0.00  0.00     0.000 C
ATOM    670   O  NT1 A 601      30.100   7.021   37.000  0.00  0.00     0.000 O
ATOM    671   C  NT1 A 601      29.810   5.913   35.860  0.00  0.00     0.000 C
ATOM    672  C2  NT1 A 601      29.570   6.376   39.350  0.00  0.00     0.000 C
ATOM    673   O  NT1 A 601      28.560   5.520   38.960  0.00  0.00     0.000 O
ATOM    674   C  NT1 A 601      27.190   6.096   38.530  0.00  0.00     0.000 C
ATOM    675  C1  NT1 A 601      30.230   5.858   40.650  0.00  0.00     0.000 C
ATOM    676  C4  NT1 A 601      29.730   4.227   42.540  0.00  0.00     0.000 C
ATOM    677  C5  NT1 A 601      31.090   3.563   43.260  0.00  0.00     0.000 C
ATOM    678  O5  NT1 A 601      30.430   3.287   44.570  0.00  0.00     0.000 O
ATOM    679   C  NT1 A 601      32.080   4.772   43.210  0.00  0.00     0.000 C
ATOM    680  C3  NT1 A 601      28.470   3.274   42.470  0.00  0.00     0.000 C
ATOM    681   O  NT1 A 601      27.330   3.937   41.850  0.00  0.00     0.000 O
ATOM    682   C  NT1 A 601      26.600   3.208   40.530  0.00  0.00     0.000 C
ATOM    683  C2  NT1 A 601      28.150   2.717   44.070  0.00  0.00     0.000 C
ATOM    684   O  NT1 A 601      27.020   1.834   43.920  0.00  0.00     0.000 O
ATOM    685   C  NT1 A 601      25.820   1.898   45.030  0.00  0.00     0.000 C
ATOM    686  C1  NT1 A 601      29.520   2.008   44.560  0.00  0.00     0.000 C
ATOM    687  C4  NT1 A 601      30.020   1.235   46.870  0.00  0.00     0.000 C
ATOM    688  C5  NT1 A 601      29.110   0.652   48.020  0.00  0.00     0.000 C
ATOM    689  O5  NT1 A 601      29.950  -0.188   48.920  0.00  0.00     0.000 O
ATOM    690   C  NT1 A 601      28.020  -0.115   47.300  0.00  0.00     0.000 C
ATOM    691   O  NT1 A 601      28.210  -1.433   47.730  0.00  0.00     0.000 O
ATOM    692   S  NT1 A 601      27.330  -2.598   47.240  0.00  0.00     0.000 S
ATOM    693   O  NT1 A 601      28.320  -3.400   46.600  0.00  0.00     0.000 OA
ATOM    694   O  NT1 A 601      26.360  -2.085   46.320  0.00  0.00     0.000 OA
ATOM    695   O  NT1 A 601      26.840  -3.186   48.390  0.00  0.00     0.000 OA
ATOM    696  C3  NT1 A 601      31.240   2.050   47.610  0.00  0.00     0.000 C
ATOM    697   O  NT1 A 601      32.100   2.613   46.580  0.00  0.00     0.000 O
ATOM    698   C  NT1 A 601      33.270   3.410   46.920  0.00  0.00     0.000 C
ATOM    699  C2  NT1 A 601      32.040   0.980   48.620  0.00  0.00     0.000 C
ATOM    700   O  NT1 A 601      33.170   1.518   49.360  0.00  0.00     0.000 O
ATOM    701   C  NT1 A 601      32.950   2.884   50.260  0.00  0.00     0.000 C
ATOM    702  C1  NT1 A 601      31.030   0.387   49.680  0.00  0.00     0.000 C
ATOM    703  C4  NT1 A 601      29.820   1.272   51.840  0.00  0.00     0.000 C
ATOM    704  C5  NT1 A 601      28.510   2.285   51.970  0.00  0.00     0.000 C
ATOM    705  O5  NT1 A 601      27.840   2.069   53.230  0.00  0.00     0.000 O
ATOM    706   C  NT1 A 601      27.420   2.112   50.810  0.00  0.00     0.000 C
ATOM    707   O  NT1 A 601      26.820   0.983   50.630  0.00  0.00     0.000 OA
ATOM    708   O  NT1 A 601      27.110   3.101   50.040  0.00  0.00     0.000 OA
ATOM    709  C3  NT1 A 601      30.810   1.547   53.150  0.00  0.00     0.000 C
ATOM    710   O  NT1 A 601      32.050   0.701   53.170  0.00  0.00     0.000 O
ATOM    711   C  NT1 A 601      32.040  -0.741   53.530  0.00  0.00     0.000 C
ATOM    712  C2  NT1 A 601      29.920   1.292   54.460  0.00  0.00     0.000 C
ATOM    713   O  NT1 A 601      30.650   1.501   55.640  0.00  0.00     0.000 O
ATOM    714   C  NT1 A 601      30.390   0.425   56.590  0.00  0.00     0.000 C
ATOM    715  C1  NT1 A 601      28.650   2.211   54.390  0.00  0.00     0.000 C
ATOM    716  C4  NT1 A 601      27.180   3.027   56.170  0.00  0.00     0.000 C
ATOM    717  C5  NT1 A 601      27.950   3.576   57.480  0.00  0.00     0.000 C
ATOM    718  O5  NT1 A 601      27.150   4.646   58.140  0.00  0.00     0.000 O
ATOM    719   C  NT1 A 601      29.340   4.141   57.130  0.00  0.00     0.000 C
ATOM    720   O  NT1 A 601      29.150   5.115   56.110  0.00  0.00     0.000 O
ATOM    721   S  NT1 A 601      30.370   5.906   55.510  0.00  0.00     0.000 S
ATOM    722   O  NT1 A 601      30.300   5.576   54.120  0.00  0.00     0.000 OA
ATOM    723   O  NT1 A 601      31.630   5.439   56.190  0.00  0.00     0.000 OA
ATOM    724   O  NT1 A 601      29.980   7.244   55.740  0.00  0.00     0.000 OA
ATOM    725  C3  NT1 A 601      25.800   2.529   56.590  0.00  0.00     0.000 C
ATOM    726   O  NT1 A 601      25.120   2.051   55.450  0.00  0.00     0.000 O
ATOM    727   S  NT1 A 601      24.610   0.516   55.500  0.00  0.00     0.000 S
ATOM    728   O  NT1 A 601      23.700   0.327   56.570  0.00  0.00     0.000 OA
ATOM    729   O  NT1 A 601      24.040   0.440   54.300  0.00  0.00     0.000 OA
ATOM    730   O  NT1 A 601      25.820  -0.296   55.670  0.00  0.00     0.000 OA
ATOM    731  C2  NT1 A 601      25.020   3.718   57.320  0.00  0.00     0.000 C
ATOM    732   O  NT1 A 601      23.760   3.298   57.720  0.00  0.00     0.000 O
ATOM    733   S  NT1 A 601      22.650   4.308   58.070  0.00  0.00     0.000 S
ATOM    734   O  NT1 A 601      22.330   3.858   59.390  0.00  0.00     0.000 OA
ATOM    735   O  NT1 A 601      21.670   4.042   57.140  0.00  0.00     0.000 OA
ATOM    736   O  NT1 A 601      23.170   5.685   57.920  0.00  0.00     0.000 OA
ATOM    737  C1  NT1 A 601      25.800   4.193   58.550  0.00  0.00     0.000 C
ATOM    738  C4  NT1 A 601      26.410   3.005   60.720  0.00  0.00     0.000 C
ATOM    739  C5  NT1 A 601      26.950   1.517   61.050  0.00  0.00     0.000 C
ATOM    740  O5  NT1 A 601      25.940   0.761   61.760  0.00  0.00     0.000 O
ATOM    741   C  NT1 A 601      27.310   0.636   59.830  0.00  0.00     0.000 C
ATOM    742   O  NT1 A 601      28.510   0.287   59.670  0.00  0.00     0.000 OA
ATOM    743   O  NT1 A 601      26.400   0.258   59.000  0.00  0.00     0.000 OA
ATOM    744  C3  NT1 A 601      25.370   3.546   61.820  0.00  0.00     0.000 C
ATOM    745   O  NT1 A 601      25.530   4.933   62.010  0.00  0.00     0.000 O
ATOM    746   C  NT1 A 601      24.310   5.659   61.800  0.00  0.00     0.000 C
ATOM    747  C2  NT1 A 601      25.560   2.848   63.190  0.00  0.00     0.000 C
ATOM    748   O  NT1 A 601      24.640   3.359   64.130  0.00  0.00     0.000 O
ATOM    749   C  NT1 A 601      25.330   4.280   65.290  0.00  0.00     0.000 C
ATOM    750  C1  NT1 A 601      25.380   1.324   62.980  0.00  0.00     0.000 C
ATOM    751   C  NT1 A 601      23.250   0.326   65.370  0.00  0.00     0.000 C
ATOM    752   O  NT1 A 601      22.570  -0.075   64.250  0.00  0.00     0.000 O
ATOM    753   S  NT1 A 601      21.290   0.761   63.730  0.00  0.00     0.000 S
ATOM    754   O  NT1 A 601      21.620   1.203   62.380  0.00  0.00     0.000 OA
ATOM    755   O  NT1 A 601      21.090   1.891   64.620  0.00  0.00     0.000 OA
ATOM    756   O  NT1 A 601      20.170  -0.166   63.750  0.00  0.00     0.000 OA
ENDBRANCH 651 655
ENDBRANCH 750 651
ENDBRANCH 545 738
ENDBRANCH 737 545
ENDBRANCH 438 716
ENDBRANCH 715 438
ENDBRANCH 330 703
ENDBRANCH 702 330
ENDBRANCH 221 687
ENDBRANCH 686 221
ENDBRANCH 111 676
ENDBRANCH 675 111
TORSDOF 12