ROOT
ATOM      1  C1  GU4 I 433      45.610  -3.868   40.750  0.00  0.00     0.000 C
ATOM      2  C2  GU4 I 433      44.950  -4.731   41.830  0.00  0.00     0.000 C
ATOM      3  C3  GU4 I 433      43.870  -5.619   41.220  0.00  0.00     0.000 C
ATOM      4  C4  GU4 I 433      42.840  -4.762   40.460  0.00  0.00     0.000 C
ATOM      5  C5  GU4 I 433      43.550  -3.812   39.490  0.00  0.00     0.000 C
ATOM      6  O5  GU4 I 433      44.610  -3.062   40.120  0.00  0.00     0.000 O
ATOM      7   O  GU4 I 433      45.930  -5.552   42.480  0.00  0.00     0.000 O
ATOM      8   S  GU4 I 433      46.430  -4.952   43.680  0.00  0.00     0.000 S
ATOM      9   O  GU4 I 433      45.290  -4.511   44.560  0.00  0.00     0.000 OA
ATOM     10   O  GU4 I 433      47.280  -3.769   43.330  0.00  0.00     0.000 OA
ATOM     11   O  GU4 I 433      47.260  -5.954   44.420  0.00  0.00     0.000 OA
ATOM     12   O  GU4 I 433      43.210  -6.361   42.250  0.00  0.00     0.000 O
ATOM     13   S  GU4 I 433      43.310  -7.783   42.090  0.00  0.00     0.000 S
ATOM     14   O  GU4 I 433      42.530  -8.447   43.190  0.00  0.00     0.000 OA
ATOM     15   O  GU4 I 433      44.740  -8.216   42.180  0.00  0.00     0.000 OA
ATOM     16   O  GU4 I 433      42.740  -8.205   40.770  0.00  0.00     0.000 OA
ATOM     17   O  GU4 I 433      42.000  -5.636   39.710  0.00  0.00     0.000 O
ATOM     18   S  GU4 I 433      40.610  -5.540   40.070  0.00  0.00     0.000 S
ATOM     19   O  GU4 I 433      40.420  -5.947   41.500  0.00  0.00     0.000 OA
ATOM     20   O  GU4 I 433      39.820  -6.454   39.180  0.00  0.00     0.000 OA
ATOM     21   O  GU4 I 433      40.120  -4.134   39.880  0.00  0.00     0.000 OA
ATOM     22   C  GU4 I 433      42.550  -2.780   38.970  0.00  0.00     0.000 C
ATOM     23   O  GU4 I 433      42.090  -1.943   40.040  0.00  0.00     0.000 O
ATOM     24   S  GU4 I 433      41.210  -0.840   39.810  0.00  0.00     0.000 S
ATOM     25   O  GU4 I 433      40.410  -0.580   41.060  0.00  0.00     0.000 OA
ATOM     26   O  GU4 I 433      40.270  -1.154   38.680  0.00  0.00     0.000 OA
ATOM     27   O  GU4 I 433      42.010   0.379   39.470  0.00  0.00     0.000 OA
ENDROOT
BRANCH 1 28
ATOM     28  O4  GU4 I 433      46.280  -4.714   39.800  0.00  0.00     0.000 O
BRANCH 28 32
ATOM     29  C1  GU6 I 434      49.620  -4.402   37.540  0.00  0.00     0.000 C
ATOM     30  C2  GU6 I 434      49.630  -4.507   39.060  0.00  0.00     0.000 C
ATOM     31  C3  GU6 I 434      48.560  -3.939   39.740  0.00  0.00     0.000 C
ATOM     32  C4  GU6 I 434      47.330  -4.155   39.140  0.00  0.00     0.000 C
ATOM     33  C5  GU6 I 434      47.280  -3.929   37.780  0.00  0.00     0.000 C
ATOM     34  O5  GU6 I 434      48.290  -4.430   37.000  0.00  0.00     0.000 O
ATOM     35   O  GU6 I 434      49.690  -5.968   41.790  0.00  0.00     0.000 OA
ATOM     36   O  GU6 I 434      51.040  -7.484   40.420  0.00  0.00     0.000 OA
ATOM     37   O  GU6 I 434      50.580  -5.247   39.690  0.00  0.00     0.000 O
ATOM     38   S  GU6 I 434      50.030  -6.372   40.390  0.00  0.00     0.000 S
ATOM     39   O  GU6 I 434      48.800  -6.872   39.690  0.00  0.00     0.000 OA
ATOM     40   O  GU6 I 434      48.710  -3.138   40.830  0.00  0.00     0.000 O
ATOM     41   S  GU6 I 434      49.010  -1.762   40.550  0.00  0.00     0.000 S
ATOM     42   O  GU6 I 434      48.470  -1.347   39.220  0.00  0.00     0.000 OA
ATOM     43   O  GU6 I 434      50.490  -1.554   40.570  0.00  0.00     0.000 OA
ATOM     44   O  GU6 I 434      48.390  -0.892   41.600  0.00  0.00     0.000 OA
ATOM     45   C  GU6 I 434      46.220  -3.071   37.100  0.00  0.00     0.000 C
ATOM     46   O  GU6 I 434      45.310  -3.878   36.350  0.00  0.00     0.000 O
ATOM     47   S  GU6 I 434      44.330  -3.237   35.540  0.00  0.00     0.000 S
ATOM     48   O  GU6 I 434      44.500  -3.708   34.120  0.00  0.00     0.000 OA
ATOM     49   O  GU6 I 434      44.510  -1.749   35.600  0.00  0.00     0.000 OA
ATOM     50   O  GU6 I 434      42.960  -3.590   36.040  0.00  0.00     0.000 OA
BRANCH 29 51
ATOM     51  O4  GU6 I 434      50.360  -5.517   37.020  0.00  0.00     0.000 O
BRANCH 51 55
ATOM     52  C1  GU0 I 435      52.020  -6.290   33.230  0.00  0.00     0.000 C
ATOM     53  C2  GU0 I 435      52.080  -4.840   33.720  0.00  0.00     0.000 C
ATOM     54  C3  GU0 I 435      51.840  -4.757   35.230  0.00  0.00     0.000 C
ATOM     55  C4  GU0 I 435      50.550  -5.491   35.600  0.00  0.00     0.000 C
ATOM     56  C5  GU0 I 435      50.600  -6.917   35.060  0.00  0.00     0.000 C
ATOM     57  O5  GU0 I 435      50.790  -6.916   33.630  0.00  0.00     0.000 O
ATOM     58   O  GU0 I 435      53.390  -4.327   33.430  0.00  0.00     0.000 O
ATOM     59   S  GU0 I 435      53.380  -3.207   32.540  0.00  0.00     0.000 S
ATOM     60   O  GU0 I 435      52.220  -2.304   32.820  0.00  0.00     0.000 OA
ATOM     61   O  GU0 I 435      53.310  -3.687   31.120  0.00  0.00     0.000 OA
ATOM     62   O  GU0 I 435      54.660  -2.444   32.740  0.00  0.00     0.000 OA
ATOM     63   O  GU0 I 435      51.720  -3.383   35.630  0.00  0.00     0.000 O
ATOM     64   S  GU0 I 435      52.770  -2.888   36.470  0.00  0.00     0.000 S
ATOM     65   O  GU0 I 435      53.990  -2.620   35.660  0.00  0.00     0.000 OA
ATOM     66   O  GU0 I 435      53.100  -3.870   37.560  0.00  0.00     0.000 OA
ATOM     67   O  GU0 I 435      52.320  -1.605   37.110  0.00  0.00     0.000 OA
ATOM     68   C  GU0 I 435      49.300  -7.676   35.340  0.00  0.00     0.000 C
ATOM     69   O  GU0 I 435      48.200  -7.077   34.660  0.00  0.00     0.000 O
ATOM     70   S  GU0 I 435      47.050  -7.836   34.260  0.00  0.00     0.000 S
ATOM     71   O  GU0 I 435      45.930  -6.899   33.920  0.00  0.00     0.000 OA
ATOM     72   O  GU0 I 435      46.620  -8.736   35.380  0.00  0.00     0.000 OA
ATOM     73   O  GU0 I 435      47.390  -8.659   33.050  0.00  0.00     0.000 OA
BRANCH 52 74
ATOM     74  O4  GU0 I 435      52.070  -6.294   31.800  0.00  0.00     0.000 O
BRANCH 74 78
ATOM     75  C1  GU5 I 436      53.520  -8.761   28.810  0.00  0.00     0.000 C
ATOM     76  C2  GU5 I 436      52.300  -9.306   29.530  0.00  0.00     0.000 C
ATOM     77  C3  GU5 I 436      51.640  -8.137   30.250  0.00  0.00     0.000 C
ATOM     78  C4  GU5 I 436      52.610  -7.506   31.240  0.00  0.00     0.000 C
ATOM     79  C5  GU5 I 436      53.920  -7.165   30.550  0.00  0.00     0.000 C
ATOM     80  O5  GU5 I 436      54.450  -8.270   29.790  0.00  0.00     0.000 O
ATOM     81   O  GU5 I 436      51.410 -10.089   28.720  0.00  0.00     0.000 O
ATOM     82   C  GU5 I 436      50.800  -9.360   27.650  0.00  0.00     0.000 C
ATOM     83   O  GU5 I 436      50.400  -8.534   30.860  0.00  0.00     0.000 O
ATOM     84   C  GU5 I 436      50.530  -9.591   31.820  0.00  0.00     0.000 C
ATOM     85   C  GU5 I 436      54.950  -6.827   31.630  0.00  0.00     0.000 C
ATOM     86   O  GU5 I 436      55.170  -7.977   32.460  0.00  0.00     0.000 O
ATOM     87   S  GU5 I 436      56.040  -7.922   33.590  0.00  0.00     0.000 S
ATOM     88   O  GU5 I 436      56.220  -9.305   34.140  0.00  0.00     0.000 OA
ATOM     89   O  GU5 I 436      55.450  -7.028   34.640  0.00  0.00     0.000 OA
ATOM     90   O  GU5 I 436      57.380  -7.391   33.160  0.00  0.00     0.000 OA
BRANCH 75 91
ATOM     91  O4  GU5 I 436      53.130  -7.697   27.930  0.00  0.00     0.000 O
BRANCH 91 95
ATOM     92  C1  GU8 I 437      54.610  -6.045   24.510  0.00  0.00     0.000 C
ATOM     93  C2  GU8 I 437      54.870  -7.539   24.600  0.00  0.00     0.000 C
ATOM     94  C3  GU8 I 437      53.970  -8.045   25.710  0.00  0.00     0.000 C
ATOM     95  C4  GU8 I 437      54.180  -7.314   27.030  0.00  0.00     0.000 C
ATOM     96  C5  GU8 I 437      54.110  -5.809   26.810  0.00  0.00     0.000 C
ATOM     97  O5  GU8 I 437      54.990  -5.418   25.740  0.00  0.00     0.000 O
ATOM     98   O  GU8 I 437      54.550  -8.197   23.360  0.00  0.00     0.000 O
ATOM     99   C  GU8 I 437      55.630  -8.098   22.430  0.00  0.00     0.000 C
ATOM    100   O  GU8 I 437      54.100  -9.468   25.880  0.00  0.00     0.000 O
ATOM    101   C  GU8 I 437      55.430  -9.880   26.240  0.00  0.00     0.000 C
ATOM    102   C  GU8 I 437      56.360  -4.239   29.230  0.00  0.00     0.000 C
ATOM    103   O  GU8 I 437      55.860  -5.291   28.400  0.00  0.00     0.000 O
ATOM    104   C  GU8 I 437      54.490  -5.026   28.060  0.00  0.00     0.000 C
BRANCH 92 105
ATOM    105  O4  GU8 I 437      55.330  -5.455   23.420  0.00  0.00     0.000 O
BRANCH 105 109
ATOM    106  C1  GU9 I 438      54.780  -2.403   20.870  0.00  0.00     0.000 C
ATOM    107  C2  GU9 I 438      55.570  -2.058   22.120  0.00  0.00     0.000 C
ATOM    108  C3  GU9 I 438      56.000  -3.368   22.770  0.00  0.00     0.000 C
ATOM    109  C4  GU9 I 438      54.760  -4.221   23.090  0.00  0.00     0.000 C
ATOM    110  C5  GU9 I 438      53.890  -4.412   21.850  0.00  0.00     0.000 C
ATOM    111  O5  GU9 I 438      53.600  -3.145   21.230  0.00  0.00     0.000 O
ATOM    112   O  GU9 I 438      56.680  -1.181   21.860  0.00  0.00     0.000 O
ATOM    113   C  GU9 I 438      57.710  -1.764   21.050  0.00  0.00     0.000 C
ATOM    114   O  GU9 I 438      56.780  -3.138   23.950  0.00  0.00     0.000 O
ATOM    115   C  GU9 I 438      56.090  -2.430   24.980  0.00  0.00     0.000 C
ATOM    116   C  GU9 I 438      52.600  -5.045   22.330  0.00  0.00     0.000 C
ATOM    117   O  GU9 I 438      51.650  -5.194   21.270  0.00  0.00     0.000 O
ATOM    118   C  GU9 I 438      50.430  -5.701   21.810  0.00  0.00     0.000 C
BRANCH 106 119
ATOM    119  O4  GU9 I 438      55.640  -3.168   20.000  0.00  0.00     0.000 O
BRANCH 119 123
ATOM    120  C1  GU8 I 439      55.790  -3.146   15.850  0.00  0.00     0.000 C
ATOM    121  C2  GU8 I 439      54.930  -2.061   16.470  0.00  0.00     0.000 C
ATOM    122  C3  GU8 I 439      55.330  -1.924   17.940  0.00  0.00     0.000 C
ATOM    123  C4  GU8 I 439      55.160  -3.258   18.650  0.00  0.00     0.000 C
ATOM    124  C5  GU8 I 439      56.020  -4.284   17.920  0.00  0.00     0.000 C
ATOM    125  O5  GU8 I 439      55.610  -4.386   16.550  0.00  0.00     0.000 O
ATOM    126   O  GU8 I 439      55.180  -0.810   15.810  0.00  0.00     0.000 O
ATOM    127   C  GU8 I 439      54.350  -0.669   14.660  0.00  0.00     0.000 C
ATOM    128   O  GU8 I 439      54.640  -0.870   18.640  0.00  0.00     0.000 O
ATOM    129   C  GU8 I 439      53.460  -0.371   18.000  0.00  0.00     0.000 C
ATOM    130   C  GU8 I 439      54.620  -7.579   18.300  0.00  0.00     0.000 C
ATOM    131   O  GU8 I 439      54.580  -6.158   18.450  0.00  0.00     0.000 O
ATOM    132   C  GU8 I 439      55.920  -5.661   18.560  0.00  0.00     0.000 C
BRANCH 120 133
ATOM    133  O4  GU8 I 439      55.410  -3.307   14.470  0.00  0.00     0.000 O
BRANCH 133 137
ATOM    134  C1  GU9 I 440      57.230  -4.901   11.100  0.00  0.00     0.000 C
ATOM    135  C2  GU9 I 440      57.240  -5.812   12.320  0.00  0.00     0.000 C
ATOM    136  C3  GU9 I 440      56.200  -5.294   13.300  0.00  0.00     0.000 C
ATOM    137  C4  GU9 I 440      56.480  -3.846   13.680  0.00  0.00     0.000 C
ATOM    138  C5  GU9 I 440      56.640  -3.003   12.420  0.00  0.00     0.000 C
ATOM    139  O5  GU9 I 440      57.600  -3.574   11.520  0.00  0.00     0.000 O
ATOM    140   O  GU9 I 440      56.910  -7.164   11.960  0.00  0.00     0.000 O
ATOM    141   C  GU9 I 440      58.090  -7.876   11.570  0.00  0.00     0.000 C
ATOM    142   O  GU9 I 440      56.090  -6.166   14.440  0.00  0.00     0.000 O
ATOM    143   C  GU9 I 440      57.290  -6.261   15.220  0.00  0.00     0.000 C
ATOM    144   C  GU9 I 440      58.740  -0.299   13.790  0.00  0.00     0.000 C
ATOM    145   C  GU9 I 440      57.070  -1.592   12.790  0.00  0.00     0.000 C
ATOM    146   O  GU9 I 440      58.360  -1.625   13.420  0.00  0.00     0.000 O
BRANCH 134 147
ATOM    147  O4  GU9 I 440      55.950  -4.893   10.460  0.00  0.00     0.000 O
BRANCH 147 151
ATOM    148  C1  GU8 I 441      54.920  -4.118    6.480  0.00  0.00     0.000 C
ATOM    149  C2  GU8 I 441      56.350  -4.585    6.710  0.00  0.00     0.000 C
ATOM    150  C3  GU8 I 441      56.420  -5.229    8.090  0.00  0.00     0.000 C
ATOM    151  C4  GU8 I 441      55.970  -4.252    9.170  0.00  0.00     0.000 C
ATOM    152  C5  GU8 I 441      54.570  -3.770    8.820  0.00  0.00     0.000 C
ATOM    153  O5  GU8 I 441      54.550  -3.185    7.500  0.00  0.00     0.000 O
ATOM    154   O  GU8 I 441      56.720  -5.571    5.740  0.00  0.00     0.000 O
ATOM    155   C  GU8 I 441      57.210  -4.945    4.550  0.00  0.00     0.000 C
ATOM    156   O  GU8 I 441      57.710  -5.804    8.340  0.00  0.00     0.000 O
ATOM    157   C  GU8 I 441      58.790  -4.869    8.250  0.00  0.00     0.000 C
ATOM    158   C  GU8 I 441      54.120  -0.432   10.300  0.00  0.00     0.000 C
ATOM    159   O  GU8 I 441      54.780  -1.492    9.600  0.00  0.00     0.000 O
ATOM    160   C  GU8 I 441      54.060  -2.717    9.790  0.00  0.00     0.000 C
BRANCH 148 161
ATOM    161  O4  GU8 I 441      54.850  -3.476    5.190  0.00  0.00     0.000 O
BRANCH 161 165
ATOM    162  C1  GU9 I 442      51.830  -2.873    2.370  0.00  0.00     0.000 C
ATOM    163  C2  GU9 I 442      51.580  -2.279    3.750  0.00  0.00     0.000 C
ATOM    164  C3  GU9 I 442      52.910  -2.190    4.510  0.00  0.00     0.000 C
ATOM    165  C4  GU9 I 442      53.540  -3.571    4.620  0.00  0.00     0.000 C
ATOM    166  C5  GU9 I 442      53.650  -4.177    3.220  0.00  0.00     0.000 C
ATOM    167  O5  GU9 I 442      52.380  -4.191    2.540  0.00  0.00     0.000 O
ATOM    168   O  GU9 I 442      50.910  -1.010    3.690  0.00  0.00     0.000 O
ATOM    169   C  GU9 I 442      51.670   0.037    3.090  0.00  0.00     0.000 C
ATOM    170   O  GU9 I 442      52.760  -1.524    5.770  0.00  0.00     0.000 O
ATOM    171   C  GU9 I 442      51.920  -2.223    6.690  0.00  0.00     0.000 C
ATOM    172   C  GU9 I 442      54.200  -5.591    3.310  0.00  0.00     0.000 C
ATOM    173   O  GU9 I 442      53.340  -6.412    4.110  0.00  0.00     0.000 O
ATOM    174   C  GU9 I 442      53.890  -7.728    4.200  0.00  0.00     0.000 C
BRANCH 162 175
ATOM    175  O4  GU9 I 442      52.730  -2.036    1.630  0.00  0.00     0.000 O
BRANCH 175 179
ATOM    176  C1  GU8 I 443      53.390  -1.470   -2.420  0.00  0.00     0.000 C
ATOM    177  C2  GU8 I 443      52.070  -2.139   -2.070  0.00  0.00     0.000 C
ATOM    178  C3  GU8 I 443      51.790  -1.856   -0.600  0.00  0.00     0.000 C
ATOM    179  C4  GU8 I 443      52.900  -2.431    0.260  0.00  0.00     0.000 C
ATOM    180  C5  GU8 I 443      54.230  -1.856   -0.220  0.00  0.00     0.000 C
ATOM    181  O5  GU8 I 443      54.430  -2.064   -1.620  0.00  0.00     0.000 O
ATOM    182   O  GU8 I 443      51.010  -1.587   -2.870  0.00  0.00     0.000 O
ATOM    183   C  GU8 I 443      50.850  -2.337   -4.080  0.00  0.00     0.000 C
ATOM    184   O  GU8 I 443      50.480  -2.288   -0.180  0.00  0.00     0.000 O
ATOM    185   C  GU8 I 443      49.960  -3.422   -0.880  0.00  0.00     0.000 C
ATOM    186   C  GU8 I 443      56.710  -4.421    0.600  0.00  0.00     0.000 C
ATOM    187   O  GU8 I 443      55.430  -3.896    0.250  0.00  0.00     0.000 O
ATOM    188   C  GU8 I 443      55.390  -2.486    0.520  0.00  0.00     0.000 C
BRANCH 176 189
ATOM    189  O4  GU8 I 443      53.690  -1.652   -3.810  0.00  0.00     0.000 O
BRANCH 189 193
ATOM    190  C1  GU5 I 444      56.300  -0.135   -6.690  0.00  0.00     0.000 C
ATOM    191  C2  GU5 I 444      56.760  -0.018   -5.240  0.00  0.00     0.000 C
ATOM    192  C3  GU5 I 444      55.960  -0.954   -4.350  0.00  0.00     0.000 C
ATOM    193  C4  GU5 I 444      54.460  -0.663   -4.490  0.00  0.00     0.000 C
ATOM    194  C5  GU5 I 444      54.080  -0.738   -5.970  0.00  0.00     0.000 C
ATOM    195  O5  GU5 I 444      54.890   0.151   -6.760  0.00  0.00     0.000 O
ATOM    196   O  GU5 I 444      58.160  -0.309   -5.120  0.00  0.00     0.000 O
ATOM    197   C  GU5 I 444      58.950   0.821   -5.520  0.00  0.00     0.000 C
ATOM    198   O  GU5 I 444      56.310  -0.747   -2.970  0.00  0.00     0.000 O
ATOM    199   C  GU5 I 444      57.490  -1.471   -2.620  0.00  0.00     0.000 C
ATOM    200   C  GU5 I 444      52.610  -0.348   -6.150  0.00  0.00     0.000 C
ATOM    201   O  GU5 I 444      52.400   1.020   -5.790  0.00  0.00     0.000 O
ATOM    202   S  GU5 I 444      51.150   1.675   -6.060  0.00  0.00     0.000 S
ATOM    203   O  GU5 I 444      50.860   1.628   -7.530  0.00  0.00     0.000 OA
ATOM    204   O  GU5 I 444      51.250   3.105   -5.620  0.00  0.00     0.000 OA
ATOM    205   O  GU5 I 444      50.050   0.991   -5.310  0.00  0.00     0.000 OA
BRANCH 190 206
ATOM    206  O4  GU5 I 444      56.590  -1.436   -7.230  0.00  0.00     0.000 O
BRANCH 206 210
ATOM    207  C1  GU1 I 445      57.090  -2.547  -11.270  0.00  0.00     0.000 C
ATOM    208  C2  GU1 I 445      57.820  -1.293  -10.810  0.00  0.00     0.000 C
ATOM    209  C3  GU1 I 445      57.930  -1.318   -9.290  0.00  0.00     0.000 C
ATOM    210  C4  GU1 I 445      56.540  -1.424   -8.660  0.00  0.00     0.000 C
ATOM    211  C5  GU1 I 445      55.900  -2.702   -9.190  0.00  0.00     0.000 C
ATOM    212  O5  GU1 I 445      55.820  -2.677  -10.620  0.00  0.00     0.000 O
ATOM    213   C  GU1 I 445      59.430   0.025  -11.920  0.00  0.00     0.000 C
ATOM    214   O  GU1 I 445      59.120  -1.280  -11.420  0.00  0.00     0.000 O
ATOM    215   O  GU1 I 445      58.680  -0.202   -8.790  0.00  0.00     0.000 O
ATOM    216   C  GU1 I 445      58.190   1.081   -9.190  0.00  0.00     0.000 C
ATOM    217   O  GU1 I 445      53.530  -2.364   -9.190  0.00  0.00     0.000 OA
ATOM    218   C  GU1 I 445      54.490  -2.847   -8.600  0.00  0.00     0.000 C
ATOM    219   O  GU1 I 445      54.320  -3.451   -7.540  0.00  0.00     0.000 OA
BRANCH 207 220
ATOM    220  O4  GU1 I 445      56.910  -2.433  -12.690  0.00  0.00     0.000 O
BRANCH 220 224
ATOM    221  C1  GU6 I 446      56.780  -5.132  -15.880  0.00  0.00     0.000 C
ATOM    222  C2  GU6 I 446      55.480  -4.968  -15.080  0.00  0.00     0.000 C
ATOM    223  C3  GU6 I 446      55.560  -3.672  -14.270  0.00  0.00     0.000 C
ATOM    224  C4  GU6 I 446      56.780  -3.705  -13.340  0.00  0.00     0.000 C
ATOM    225  C5  GU6 I 446      58.030  -3.986  -14.170  0.00  0.00     0.000 C
ATOM    226  O5  GU6 I 446      57.880  -5.182  -14.960  0.00  0.00     0.000 O
ATOM    227   O  GU6 I 446      52.610  -6.256  -16.950  0.00  0.00     0.000 OA
ATOM    228   O  GU6 I 446      54.460  -7.319  -15.770  0.00  0.00     0.000 OA
ATOM    229   O  GU6 I 446      54.350  -4.918  -15.970  0.00  0.00     0.000 O
ATOM    230   S  GU6 I 446      54.070  -6.156  -16.630  0.00  0.00     0.000 S
ATOM    231   O  GU6 I 446      54.850  -6.204  -17.910  0.00  0.00     0.000 OA
ATOM    232   O  GU6 I 446      54.370  -3.491  -13.500  0.00  0.00     0.000 O
ATOM    233   S  GU6 I 446      53.620  -2.338  -13.900  0.00  0.00     0.000 S
ATOM    234   O  GU6 I 446      53.230  -2.446  -15.350  0.00  0.00     0.000 OA
ATOM    235   O  GU6 I 446      52.380  -2.261  -13.060  0.00  0.00     0.000 OA
ATOM    236   O  GU6 I 446      54.440  -1.092  -13.710  0.00  0.00     0.000 OA
ATOM    237   C  GU6 I 446      59.240  -4.131  -13.250  0.00  0.00     0.000 C
ATOM    238   O  GU6 I 446      59.090  -5.228  -12.340  0.00  0.00     0.000 O
ATOM    239   S  GU6 I 446      60.030  -5.467  -11.290  0.00  0.00     0.000 S
ATOM    240   O  GU6 I 446      60.210  -4.221  -10.470  0.00  0.00     0.000 OA
ATOM    241   O  GU6 I 446      61.350  -5.875  -11.870  0.00  0.00     0.000 OA
ATOM    242   O  GU6 I 446      59.510  -6.565  -10.410  0.00  0.00     0.000 OA
BRANCH 221 243
ATOM    243  O4  GU6 I 446      56.880  -3.993  -16.750  0.00  0.00     0.000 O
BRANCH 243 247
ATOM    244  C1  GU2 I 447      57.760  -3.044  -20.300  0.00  0.00     0.000 C
ATOM    245  C2  GU2 I 447      58.540  -4.306  -19.970  0.00  0.00     0.000 C
ATOM    246  C3  GU2 I 447      57.990  -4.915  -18.690  0.00  0.00     0.000 C
ATOM    247  C4  GU2 I 447      58.090  -3.945  -17.510  0.00  0.00     0.000 C
ATOM    248  C5  GU2 I 447      58.280  -2.528  -18.030  0.00  0.00     0.000 C
ATOM    249  O5  GU2 I 447      57.370  -2.313  -19.120  0.00  0.00     0.000 O
ATOM    250   O  GU2 I 447      58.470  -5.273  -21.030  0.00  0.00     0.000 O
ATOM    251   C  GU2 I 447      59.370  -4.939  -22.090  0.00  0.00     0.000 C
ATOM    252   C  GU2 I 447      60.040  -6.055  -18.130  0.00  0.00     0.000 C
ATOM    253   O  GU2 I 447      58.630  -6.167  -18.390  0.00  0.00     0.000 O
ATOM    254   C  GU2 I 447      58.010  -1.508  -16.920  0.00  0.00     0.000 C
ATOM    255   O  GU2 I 447      56.860  -1.088  -16.750  0.00  0.00     0.000 OA
ATOM    256   O  GU2 I 447      58.920  -1.108  -16.210  0.00  0.00     0.000 OA
BRANCH 244 257
ATOM    257  O4  GU2 I 447      58.530  -2.222  -21.190  0.00  0.00     0.000 O
BRANCH 257 261
ATOM    258  C1  GU3 I 448      57.350   0.970  -23.630  0.00  0.00     0.000 C
ATOM    259  C2  GU3 I 448      57.670   1.298  -22.170  0.00  0.00     0.000 C
ATOM    260  C3  GU3 I 448      58.510   0.170  -21.570  0.00  0.00     0.000 C
ATOM    261  C4  GU3 I 448      57.740  -1.137  -21.700  0.00  0.00     0.000 C
ATOM    262  C5  GU3 I 448      57.400  -1.384  -23.170  0.00  0.00     0.000 C
ATOM    263  O5  GU3 I 448      56.650  -0.284  -23.700  0.00  0.00     0.000 O
ENDBRANCH 257 261
ENDBRANCH 244 257
ENDBRANCH 243 247
ENDBRANCH 221 243
ENDBRANCH 220 224
ENDBRANCH 207 220
ENDBRANCH 206 210
ENDBRANCH 190 206
ENDBRANCH 189 193
ENDBRANCH 176 189
ENDBRANCH 175 179
ENDBRANCH 162 175
ENDBRANCH 161 165
ENDBRANCH 148 161
ENDBRANCH 147 151
ENDBRANCH 134 147
ENDBRANCH 133 137
ENDBRANCH 120 133
ENDBRANCH 119 123
ENDBRANCH 106 119
ENDBRANCH 105 109
ENDBRANCH 92 105
ENDBRANCH 91 95
ENDBRANCH 75 91
ENDBRANCH 74 78
ENDBRANCH 52 74
ENDBRANCH 51 55
ENDBRANCH 29 51
ENDBRANCH 28 32
ENDBRANCH 1 28
TORSDOF 30