ROOT
ATOM      1  C1  H1S A 301      17.080   8.840   36.580  0.00  0.00     0.000 C
ATOM      2  C2  H1S A 301      16.530   8.572   38.010  0.00  0.00     0.000 C
ATOM      3  C3  H1S A 301      17.490   9.228   39.050  0.00  0.00     0.000 C
ATOM      4  C4  H1S A 301      17.970  10.611   38.600  0.00  0.00     0.000 C
ATOM      5  C5  H1S A 301      17.780  11.065   37.340  0.00  0.00     0.000 C
ATOM      6  O5  H1S A 301      17.150  10.296   36.400  0.00  0.00     0.000 O
ATOM      7  C4  H1S A 301      18.600   7.744   35.040  0.00  0.00     0.000 C
ATOM      8  C5  H1S A 301      18.560   8.923   34.000  0.00  0.00     0.000 C
ATOM      9  C3  H1S A 301      17.570   6.681   34.580  0.00  0.00     0.000 C
ATOM     10  O5  H1S A 301      18.780   8.478   32.630  0.00  0.00     0.000 O
ATOM     11   C  H1S A 301      19.590  10.006   34.390  0.00  0.00     0.000 C
ATOM     12  C2  H1S A 301      17.900   6.234   33.150  0.00  0.00     0.000 C
ATOM     13   O  H1S A 301      17.620   5.571   35.480  0.00  0.00     0.000 O
ATOM     15  HD  H1S A 301      18.120   6.071   35.980  0.00  0.00     0.000 HD
ATOM     15  C1  H1S A 301      17.820   7.465   32.230  0.00  0.00     0.000 C
ATOM     16   O  H1S A 301      20.890   9.715   33.850  0.00  0.00     0.000 O
ATOM     17   N  H1S A 301      16.930   5.233   32.720  0.00  0.00     0.000 N
ATOM     19  HD  H1S A 301      17.430   5.733   33.220  0.00  0.00     0.000 HD
ATOM     19   O  H1S A 301      16.490   8.016   32.250  0.00  0.00     0.000 OA
ATOM     20   S  H1S A 301      21.950  10.298   34.800  0.00  0.00     0.000 S
ATOM     21   S  H1S A 301      17.380   3.649   32.630  0.00  0.00     0.000 S
ATOM     22   O  H1S A 301      21.850   9.682   36.090  0.00  0.00     0.000 OA
ATOM     23   O  H1S A 301      23.240  10.041   34.280  0.00  0.00     0.000 OA
ATOM     24   O  H1S A 301      21.740  11.939   34.960  0.00  0.00     0.000 OA
ATOM     25   O  H1S A 301      17.650   3.154   33.940  0.00  0.00     0.000 OA
ATOM     26   O  H1S A 301      16.330   2.889   32.050  0.00  0.00     0.000 OA
ATOM     27   O  H1S A 301      18.740   3.525   31.690  0.00  0.00     0.000 OA
ATOM     28   S  H1S A 301      14.090   8.167   38.020  0.00  0.00     0.000 S
ATOM     29   O  H1S A 301      12.860   8.830   38.300  0.00  0.00     0.000 OA
ATOM     30   O  H1S A 301      14.030   7.626   36.700  0.00  0.00     0.000 OA
ATOM     31   O  H1S A 301      14.310   6.943   39.120  0.00  0.00     0.000 OA
ATOM     32   O  H1S A 301      15.230   9.199   38.130  0.00  0.00     0.000 O
ATOM     33   O  H1S A 301      18.640   8.383   39.250  0.00  0.00     0.000 O
ATOM     35  HD  H1S A 301      19.140   8.883   39.750  0.00  0.00     0.000 HD
ATOM     35   O  H1S A 301      19.250  13.054   37.660  0.00  0.00     0.000 OA
ATOM     36   O  H1S A 301      17.700  12.970   36.020  0.00  0.00     0.000 OA
ATOM     37   C  H1S A 301      18.230  12.409   36.960  0.00  0.00     0.000 C
ENDROOT
BRANCH 64 38
ATOM     38  O4  H1S A 301      18.400   8.245   36.390  0.00  0.00     0.000 O
BRANCH 38 42
ATOM     39  C1  H1S A 301      17.820   7.465   32.230  0.00  0.00     0.000 C
ATOM     40  C2  H1S A 301      17.900   6.234   33.150  0.00  0.00     0.000 C
ATOM     41  C3  H1S A 301      17.570   6.681   34.580  0.00  0.00     0.000 C
ATOM     42  C4  H1S A 301      18.600   7.744   35.040  0.00  0.00     0.000 C
ATOM     43  C5  H1S A 301      18.560   8.923   34.000  0.00  0.00     0.000 C
ATOM     44  O5  H1S A 301      18.780   8.478   32.630  0.00  0.00     0.000 O
ATOM     45   O  H1S A 301      16.490   8.016   32.250  0.00  0.00     0.000 OA
ATOM     46   O  H1S A 301      17.650   3.154   33.940  0.00  0.00     0.000 OA
ATOM     47   O  H1S A 301      16.330   2.889   32.050  0.00  0.00     0.000 OA
ATOM     48   O  H1S A 301      18.740   3.525   31.690  0.00  0.00     0.000 OA
ATOM     49   N  H1S A 301      16.930   5.233   32.720  0.00  0.00     0.000 N
ATOM     51  HD  H1S A 301      17.430   5.733   33.220  0.00  0.00     0.000 HD
ATOM     51   S  H1S A 301      17.380   3.649   32.630  0.00  0.00     0.000 S
ATOM     52   O  H1S A 301      17.620   5.571   35.480  0.00  0.00     0.000 O
ATOM     54  HD  H1S A 301      18.120   6.071   35.980  0.00  0.00     0.000 HD
ATOM     54  C4  H1S A 301      17.970  10.611   38.600  0.00  0.00     0.000 C
ATOM     55   O  H1S A 301      18.640   8.383   39.250  0.00  0.00     0.000 O
ATOM     57  HD  H1S A 301      19.140   8.883   39.750  0.00  0.00     0.000 HD
ATOM     57   S  H1S A 301      14.090   8.167   38.020  0.00  0.00     0.000 S
ATOM     58   C  H1S A 301      18.230  12.409   36.960  0.00  0.00     0.000 C
ATOM     59   O  H1S A 301      12.860   8.830   38.300  0.00  0.00     0.000 OA
ATOM     60   O  H1S A 301      14.030   7.626   36.700  0.00  0.00     0.000 OA
ATOM     61   O  H1S A 301      14.310   6.943   39.120  0.00  0.00     0.000 OA
ATOM     62   O  H1S A 301      17.700  12.970   36.020  0.00  0.00     0.000 OA
ATOM     63   O  H1S A 301      19.250  13.054   37.660  0.00  0.00     0.000 OA
ATOM     64  C1  H1S A 301      17.080   8.840   36.580  0.00  0.00     0.000 C
ATOM     65  C2  H1S A 301      16.530   8.572   38.010  0.00  0.00     0.000 C
ATOM     66  O5  H1S A 301      17.150  10.296   36.400  0.00  0.00     0.000 O
ATOM     67  C3  H1S A 301      17.490   9.228   39.050  0.00  0.00     0.000 C
ATOM     68   O  H1S A 301      15.230   9.199   38.130  0.00  0.00     0.000 O
ATOM     69  C5  H1S A 301      17.780  11.065   37.340  0.00  0.00     0.000 C
ATOM     70   C  H1S A 301      19.590  10.006   34.390  0.00  0.00     0.000 C
ATOM     71   O  H1S A 301      20.890   9.715   33.850  0.00  0.00     0.000 O
ATOM     72   S  H1S A 301      21.950  10.298   34.800  0.00  0.00     0.000 S
ATOM     73   O  H1S A 301      21.850   9.682   36.090  0.00  0.00     0.000 OA
ATOM     74   O  H1S A 301      23.240  10.041   34.280  0.00  0.00     0.000 OA
ATOM     75   O  H1S A 301      21.740  11.939   34.960  0.00  0.00     0.000 OA
ENDBRANCH 38 42
ENDBRANCH 64 38
TORSDOF 2