ROOT
ATOM      1  C1  H3S A 301      17.260   8.909   36.400  0.00  0.00     0.000 C
ATOM      2  C2  H3S A 301      16.730   8.584   37.850  0.00  0.00     0.000 C
ATOM      3  C3  H3S A 301      17.710   9.228   38.910  0.00  0.00     0.000 C
ATOM      4  C4  H3S A 301      18.250  10.614   38.490  0.00  0.00     0.000 C
ATOM      5  C5  H3S A 301      18.060  11.117   37.230  0.00  0.00     0.000 C
ATOM      6  O5  H3S A 301      17.360  10.387   36.280  0.00  0.00     0.000 O
ATOM      7   S  H3S A 301      17.490   3.745   32.460  0.00  0.00     0.000 S
ATOM      8   O  H3S A 301      17.750   3.342   33.800  0.00  0.00     0.000 OA
ATOM      9   O  H3S A 301      16.400   2.992   31.950  0.00  0.00     0.000 OA
ATOM     10   O  H3S A 301      18.850   3.490   31.530  0.00  0.00     0.000 OA
ATOM     11  C4  H3S A 301      18.800   7.800   34.800  0.00  0.00     0.000 C
ATOM     12  C5  H3S A 301      18.820   8.998   33.750  0.00  0.00     0.000 C
ATOM     13  C3  H3S A 301      17.760   6.780   34.310  0.00  0.00     0.000 C
ATOM     14  O5  H3S A 301      19.050   8.547   32.370  0.00  0.00     0.000 O
ATOM     15   C  H3S A 301      19.880  10.059   34.140  0.00  0.00     0.000 C
ATOM     16  C2  H3S A 301      18.090   6.315   32.880  0.00  0.00     0.000 C
ATOM     17   O  H3S A 301      17.740   5.675   35.230  0.00  0.00     0.000 O
ATOM     19  HD  H3S A 301      18.240   6.175   35.730  0.00  0.00     0.000 HD
ATOM     19  C1  H3S A 301      18.080   7.539   31.920  0.00  0.00     0.000 C
ATOM     20   O  H3S A 301      21.220   9.567   33.940  0.00  0.00     0.000 O
ATOM     22  HD  H3S A 301      21.720  10.067   34.440  0.00  0.00     0.000 HD
ATOM     22   N  H3S A 301      17.110   5.344   32.420  0.00  0.00     0.000 N
ATOM     24  HD  H3S A 301      17.610   5.844   32.920  0.00  0.00     0.000 HD
ATOM     24   O  H3S A 301      16.750   8.119   31.880  0.00  0.00     0.000 OA
ATOM     25   O  H3S A 301      15.430   9.210   38.010  0.00  0.00     0.000 O
ATOM     26   S  H3S A 301      14.230   8.224   37.860  0.00  0.00     0.000 S
ATOM     27   O  H3S A 301      13.030   8.967   38.050  0.00  0.00     0.000 OA
ATOM     28   O  H3S A 301      14.200   7.648   36.540  0.00  0.00     0.000 OA
ATOM     29   O  H3S A 301      14.310   7.026   39.010  0.00  0.00     0.000 OA
ATOM     30   O  H3S A 301      18.820   8.342   39.130  0.00  0.00     0.000 O
ATOM     32  HD  H3S A 301      19.320   8.842   39.630  0.00  0.00     0.000 HD
ATOM     32   O  H3S A 301      19.450  13.159   37.660  0.00  0.00     0.000 OA
ATOM     33   O  H3S A 301      18.220  12.931   35.790  0.00  0.00     0.000 OA
ATOM     34   C  H3S A 301      18.570  12.445   36.840  0.00  0.00     0.000 C
ENDROOT
BRANCH 63 35
ATOM     35  O4  H3S A 301      18.590   8.289   36.140  0.00  0.00     0.000 O
BRANCH 35 39
ATOM     36  C1  H3S A 301      18.080   7.539   31.920  0.00  0.00     0.000 C
ATOM     37  C2  H3S A 301      18.090   6.315   32.880  0.00  0.00     0.000 C
ATOM     38  C3  H3S A 301      17.760   6.780   34.310  0.00  0.00     0.000 C
ATOM     39  C4  H3S A 301      18.800   7.800   34.800  0.00  0.00     0.000 C
ATOM     40  C5  H3S A 301      18.820   8.998   33.750  0.00  0.00     0.000 C
ATOM     41  O5  H3S A 301      19.050   8.547   32.370  0.00  0.00     0.000 O
ATOM     42   O  H3S A 301      16.750   8.119   31.880  0.00  0.00     0.000 OA
ATOM     43   S  H3S A 301      17.490   3.745   32.460  0.00  0.00     0.000 S
ATOM     44   O  H3S A 301      17.750   3.342   33.800  0.00  0.00     0.000 OA
ATOM     45   O  H3S A 301      16.400   2.992   31.950  0.00  0.00     0.000 OA
ATOM     46   O  H3S A 301      18.850   3.490   31.530  0.00  0.00     0.000 OA
ATOM     47   N  H3S A 301      17.110   5.344   32.420  0.00  0.00     0.000 N
ATOM     49  HD  H3S A 301      17.610   5.844   32.920  0.00  0.00     0.000 HD
ATOM     49   O  H3S A 301      17.740   5.675   35.230  0.00  0.00     0.000 O
ATOM     51  HD  H3S A 301      18.240   6.175   35.730  0.00  0.00     0.000 HD
ATOM     51   O  H3S A 301      15.430   9.210   38.010  0.00  0.00     0.000 O
ATOM     52  C5  H3S A 301      18.060  11.117   37.230  0.00  0.00     0.000 C
ATOM     53  C4  H3S A 301      18.250  10.614   38.490  0.00  0.00     0.000 C
ATOM     54   O  H3S A 301      18.820   8.342   39.130  0.00  0.00     0.000 O
ATOM     56  HD  H3S A 301      19.320   8.842   39.630  0.00  0.00     0.000 HD
ATOM     56   S  H3S A 301      14.230   8.224   37.860  0.00  0.00     0.000 S
ATOM     57   C  H3S A 301      18.570  12.445   36.840  0.00  0.00     0.000 C
ATOM     58   O  H3S A 301      13.030   8.967   38.050  0.00  0.00     0.000 OA
ATOM     59   O  H3S A 301      14.200   7.648   36.540  0.00  0.00     0.000 OA
ATOM     60   O  H3S A 301      14.310   7.026   39.010  0.00  0.00     0.000 OA
ATOM     61   O  H3S A 301      18.220  12.931   35.790  0.00  0.00     0.000 OA
ATOM     62   O  H3S A 301      19.450  13.159   37.660  0.00  0.00     0.000 OA
ATOM     63  C1  H3S A 301      17.260   8.909   36.400  0.00  0.00     0.000 C
ATOM     64  C2  H3S A 301      16.730   8.584   37.850  0.00  0.00     0.000 C
ATOM     65  O5  H3S A 301      17.360  10.387   36.280  0.00  0.00     0.000 O
ATOM     66  C3  H3S A 301      17.710   9.228   38.910  0.00  0.00     0.000 C
ATOM     67   O  H3S A 301      21.220   9.567   33.940  0.00  0.00     0.000 O
ATOM     69  HD  H3S A 301      21.720  10.067   34.440  0.00  0.00     0.000 HD
ATOM     69   C  H3S A 301      19.880  10.059   34.140  0.00  0.00     0.000 C
ENDBRANCH 35 39
ENDBRANCH 63 35
TORSDOF 2