ROOT
ATOM      1  C1  SGN B   2      68.320  -8.965   15.140  0.00  0.00     0.000 C
ATOM      2  C2  SGN B   2      69.780  -8.490   14.930  0.00  0.00     0.000 C
ATOM      3  C3  SGN B   2      70.560  -8.604   16.260  0.00  0.00     0.000 C
ATOM      4  C4  SGN B   2      69.870  -7.693   17.290  0.00  0.00     0.000 C
ATOM      5  C5  SGN B   2      68.410  -8.191   17.480  0.00  0.00     0.000 C
ATOM      6  O5  SGN B   2      67.710  -8.205   16.200  0.00  0.00     0.000 O
ATOM      7   N  SGN B   2      70.380  -9.314   13.860  0.00  0.00     0.000 N
ATOM      9  HD  SGN B   2      70.880  -8.814   14.360  0.00  0.00     0.000 HD
ATOM      9   S  SGN B   2      70.730  -8.645   12.400  0.00  0.00     0.000 S
ATOM     10   O  SGN B   2      70.670  -7.215   12.510  0.00  0.00     0.000 OA
ATOM     11   O  SGN B   2      72.050  -9.122   12.060  0.00  0.00     0.000 OA
ATOM     12   O  SGN B   2      69.720  -9.154   11.520  0.00  0.00     0.000 OA
ATOM     13   O  SGN B   2      71.890  -8.163   16.070  0.00  0.00     0.000 O
ATOM     15  HD  SGN B   2      72.390  -7.663   16.570  0.00  0.00     0.000 HD
ATOM     15   C  SGN B   2      67.570  -7.358   18.460  0.00  0.00     0.000 C
ATOM     16   O  SGN B   2      67.340  -6.087   17.890  0.00  0.00     0.000 O
ATOM     17   S  SGN B   2      66.320  -4.998   18.360  0.00  0.00     0.000 S
ATOM     18   O  SGN B   2      66.820  -3.741   17.890  0.00  0.00     0.000 OA
ATOM     19   O  SGN B   2      65.070  -5.370   17.740  0.00  0.00     0.000 OA
ATOM     20   O  SGN B   2      66.260  -5.083   19.790  0.00  0.00     0.000 OA
ENDROOT
BRANCH 1 21
ATOM     21  O4  SGN B   2      68.270 -10.356   15.420  0.00  0.00     0.000 O
BRANCH 21 25
ATOM     22  C1  IDS B   3      66.380 -13.643   14.620  0.00  0.00     0.000 C
ATOM     23  C2  IDS B   3      66.000 -12.356   13.840  0.00  0.00     0.000 C
ATOM     24  C3  IDS B   3      65.840 -11.105   14.730  0.00  0.00     0.000 C
ATOM     25  C4  IDS B   3      67.010 -10.968   15.730  0.00  0.00     0.000 C
ATOM     26  C5  IDS B   3      67.210 -12.312   16.480  0.00  0.00     0.000 C
ATOM     27  O5  IDS B   3      67.440 -13.370   15.530  0.00  0.00     0.000 O
ATOM     28   O  IDS B   3      67.030 -12.106   12.900  0.00  0.00     0.000 O
ATOM     29   S  IDS B   3      67.020 -12.368   11.370  0.00  0.00     0.000 S
ATOM     30   O  IDS B   3      66.160 -11.373   10.810  0.00  0.00     0.000 OA
ATOM     31   O  IDS B   3      68.390 -12.225   10.960  0.00  0.00     0.000 OA
ATOM     32   O  IDS B   3      66.530 -13.707   11.190  0.00  0.00     0.000 OA
ATOM     33   O  IDS B   3      64.630 -11.209   15.460  0.00  0.00     0.000 O
ATOM     35  HD  IDS B   3      65.130 -10.709   15.960  0.00  0.00     0.000 HD
ATOM     35   O  IDS B   3      68.120 -12.186   18.680  0.00  0.00     0.000 OA
ATOM     36   C  IDS B   3      68.350 -12.305   17.500  0.00  0.00     0.000 C
ATOM     37   O  IDS B   3      69.510 -12.415   17.160  0.00  0.00     0.000 OA
BRANCH 22 38
ATOM     38  O4  IDS B   3      65.220 -14.132   15.250  0.00  0.00     0.000 O
BRANCH 38 42
ATOM     39  C1  SGN B   4      64.200 -18.032   16.750  0.00  0.00     0.000 C
ATOM     40  C2  SGN B   4      64.710 -16.875   17.660  0.00  0.00     0.000 C
ATOM     41  C3  SGN B   4      64.440 -15.522   16.970  0.00  0.00     0.000 C
ATOM     42  C4  SGN B   4      65.200 -15.508   15.620  0.00  0.00     0.000 C
ATOM     43  C5  SGN B   4      64.670 -16.685   14.750  0.00  0.00     0.000 C
ATOM     44  O5  SGN B   4      64.810 -17.952   15.450  0.00  0.00     0.000 O
ATOM     45   N  SGN B   4      64.040 -16.981   18.970  0.00  0.00     0.000 N
ATOM     47  HD  SGN B   4      64.540 -16.481   19.470  0.00  0.00     0.000 HD
ATOM     47   S  SGN B   4      64.630 -16.182   20.290  0.00  0.00     0.000 S
ATOM     48   O  SGN B   4      66.000 -15.811   20.040  0.00  0.00     0.000 OA
ATOM     49   O  SGN B   4      63.770 -15.047   20.470  0.00  0.00     0.000 OA
ATOM     50   O  SGN B   4      64.520 -17.129   21.360  0.00  0.00     0.000 OA
ATOM     51   O  SGN B   4      64.910 -14.465   17.780  0.00  0.00     0.000 O
ATOM     53  HD  SGN B   4      65.410 -13.965   18.280  0.00  0.00     0.000 HD
ATOM     53   C  SGN B   4      65.350 -16.844   13.380  0.00  0.00     0.000 C
ATOM     54   O  SGN B   4      66.750 -16.947   13.570  0.00  0.00     0.000 O
ATOM     55   S  SGN B   4      67.690 -18.123   13.150  0.00  0.00     0.000 S
ATOM     56   O  SGN B   4      68.980 -17.860   13.730  0.00  0.00     0.000 OA
ATOM     57   O  SGN B   4      67.070 -19.304   13.700  0.00  0.00     0.000 OA
ATOM     58   O  SGN B   4      67.700 -18.120   11.720  0.00  0.00     0.000 OA
BRANCH 39 59
ATOM     59  O4  SGN B   4      62.790 -18.007   16.650  0.00  0.00     0.000 O
BRANCH 59 63
ATOM     60  C1  IDS B   5      59.430 -18.644   17.220  0.00  0.00     0.000 C
ATOM     61  C2  IDS B   5      60.480 -19.453   18.040  0.00  0.00     0.000 C
ATOM     62  C3  IDS B   5      61.630 -20.065   17.200  0.00  0.00     0.000 C
ATOM     63  C4  IDS B   5      62.130 -19.137   16.060  0.00  0.00     0.000 C
ATOM     64  C5  IDS B   5      60.900 -18.582   15.290  0.00  0.00     0.000 C
ATOM     65  O5  IDS B   5      60.060 -17.867   16.210  0.00  0.00     0.000 O
ATOM     66   O  IDS B   5      61.040 -18.592   19.020  0.00  0.00     0.000 O
ATOM     67   S  IDS B   5      61.710 -18.973   20.390  0.00  0.00     0.000 S
ATOM     68   O  IDS B   5      61.690 -17.778   21.190  0.00  0.00     0.000 OA
ATOM     69   O  IDS B   5      60.890 -20.021   20.940  0.00  0.00     0.000 OA
ATOM     70   O  IDS B   5      63.040 -19.425   20.100  0.00  0.00     0.000 OA
ATOM     71   O  IDS B   5      61.190 -21.281   16.620  0.00  0.00     0.000 O
ATOM     73  HD  IDS B   5      61.690 -20.781   17.120  0.00  0.00     0.000 HD
ATOM     73   O  IDS B   5      61.160 -16.462   14.200  0.00  0.00     0.000 OA
ATOM     74   O  IDS B   5      61.610 -18.131   13.060  0.00  0.00     0.000 OA
ATOM     75   C  IDS B   5      61.240 -17.667   14.120  0.00  0.00     0.000 C
BRANCH 60 76
ATOM     76  O4  IDS B   5      58.480 -19.536   16.680  0.00  0.00     0.000 O
BRANCH 76 80
ATOM     77  C1  SGN B   6      54.830 -20.831   15.930  0.00  0.00     0.000 C
ATOM     78  C2  SGN B   6      55.230 -19.543   15.150  0.00  0.00     0.000 C
ATOM     79  C3  SGN B   6      56.760 -19.348   15.260  0.00  0.00     0.000 C
ATOM     80  C4  SGN B   6      57.100 -19.164   16.760  0.00  0.00     0.000 C
ATOM     81  C5  SGN B   6      56.650 -20.444   17.540  0.00  0.00     0.000 C
ATOM     82  O5  SGN B   6      55.240 -20.715   17.300  0.00  0.00     0.000 O
ATOM     83   N  SGN B   6      54.810 -19.706   13.750  0.00  0.00     0.000 N
ATOM     85  HD  SGN B   6      55.310 -19.206   14.250  0.00  0.00     0.000 HD
ATOM     85   S  SGN B   6      54.420 -18.400   12.830  0.00  0.00     0.000 S
ATOM     86   O  SGN B   6      54.150 -17.284   13.690  0.00  0.00     0.000 OA
ATOM     87   O  SGN B   6      55.540 -18.188   11.970  0.00  0.00     0.000 OA
ATOM     88   O  SGN B   6      53.250 -18.807   12.110  0.00  0.00     0.000 OA
ATOM     89   O  SGN B   6      57.150 -18.185   14.570  0.00  0.00     0.000 O
ATOM     91  HD  SGN B   6      57.650 -17.685   15.070  0.00  0.00     0.000 HD
ATOM     91   O  SGN B   6      58.610 -17.476   20.080  0.00  0.00     0.000 OA
ATOM     92   O  SGN B   6      56.630 -17.581   21.400  0.00  0.00     0.000 OA
ATOM     93   O  SGN B   6      58.190 -19.372   21.480  0.00  0.00     0.000 OA
ATOM     94   C  SGN B   6      56.880 -20.388   19.070  0.00  0.00     0.000 C
ATOM     95   O  SGN B   6      56.830 -19.029   19.510  0.00  0.00     0.000 O
ATOM     96   S  SGN B   6      57.620 -18.326   20.680  0.00  0.00     0.000 S
BRANCH 77 97
ATOM     97  O4  SGN B   6      55.400 -22.001   15.350  0.00  0.00     0.000 O
BRANCH 97 101
ATOM     98  C1  IDS B   7      55.650 -25.369   13.310  0.00  0.00     0.000 C
ATOM     99  C2  IDS B   7      55.900 -24.058   12.520  0.00  0.00     0.000 C
ATOM    100  C3  IDS B   7      55.980 -22.860   13.490  0.00  0.00     0.000 C
ATOM    101  C4  IDS B   7      54.670 -22.712   14.340  0.00  0.00     0.000 C
ATOM    102  C5  IDS B   7      53.840 -24.047   14.300  0.00  0.00     0.000 C
ATOM    103  O5  IDS B   7      54.760 -25.158   14.420  0.00  0.00     0.000 O
ATOM    104   O  IDS B   7      55.110 -26.296   12.410  0.00  0.00     0.000 OA
ATOM    105   O  IDS B   7      57.120 -24.189   11.760  0.00  0.00     0.000 O
ATOM    106   S  IDS B   7      58.590 -23.656   12.010  0.00  0.00     0.000 S
ATOM    107   O  IDS B   7      58.580 -22.325   11.470  0.00  0.00     0.000 OA
ATOM    108   O  IDS B   7      58.850 -23.668   13.420  0.00  0.00     0.000 OA
ATOM    109   O  IDS B   7      59.450 -24.539   11.280  0.00  0.00     0.000 OA
ATOM    110   O  IDS B   7      56.190 -21.680   12.740  0.00  0.00     0.000 O
ATOM    112  HD  IDS B   7      56.690 -21.180   13.240  0.00  0.00     0.000 HD
ATOM    112   C  IDS B   7      52.740 -24.172   15.350  0.00  0.00     0.000 C
ATOM    113   O  IDS B   7      52.440 -23.239   16.070  0.00  0.00     0.000 OA
ATOM    114   O  IDS B   7      52.120 -25.207   15.500  0.00  0.00     0.000 OA
ENDBRANCH 97 101
ENDBRANCH 77 97
ENDBRANCH 76 80
ENDBRANCH 60 76
ENDBRANCH 59 63
ENDBRANCH 39 59
ENDBRANCH 38 42
ENDBRANCH 22 38
ENDBRANCH 21 25
ENDBRANCH 1 21
TORSDOF 10