ROOT
ATOM      1  C1  SGN D   2      96.600  18.229   41.940  0.00  0.00     0.000 C
ATOM      2  C2  SGN D   2      96.400  19.362   42.980  0.00  0.00     0.000 C
ATOM      3  C3  SGN D   2      95.840  20.614   42.270  0.00  0.00     0.000 C
ATOM      4  C4  SGN D   2      96.870  21.054   41.210  0.00  0.00     0.000 C
ATOM      5  C5  SGN D   2      97.060  19.887   40.190  0.00  0.00     0.000 C
ATOM      6  O5  SGN D   2      97.460  18.668   40.880  0.00  0.00     0.000 O
ATOM      7   N  SGN D   2      95.490  18.871   44.030  0.00  0.00     0.000 N
ATOM      9  HD  SGN D   2      95.990  19.371   44.530  0.00  0.00     0.000 HD
ATOM      9   S  SGN D   2      96.080  17.974   45.280  0.00  0.00     0.000 S
ATOM     10   O  SGN D   2      97.510  17.971   45.220  0.00  0.00     0.000 OA
ATOM     11   O  SGN D   2      95.570  18.587   46.480  0.00  0.00     0.000 OA
ATOM     12   O  SGN D   2      95.540  16.658   45.080  0.00  0.00     0.000 OA
ATOM     13   O  SGN D   2      95.670  21.661   43.200  0.00  0.00     0.000 O
ATOM     15  HD  SGN D   2      96.170  22.161   43.700  0.00  0.00     0.000 HD
ATOM     15   O  SGN D   2      99.230  20.818   39.630  0.00  0.00     0.000 O
ATOM     16   S  SGN D   2     100.750  20.524   39.370  0.00  0.00     0.000 S
ATOM     17   O  SGN D   2     101.490  21.556   40.030  0.00  0.00     0.000 OA
ATOM     18   O  SGN D   2     100.970  19.226   39.950  0.00  0.00     0.000 OA
ATOM     19   O  SGN D   2     100.930  20.530   37.950  0.00  0.00     0.000 OA
ATOM     20   C  SGN D   2      98.100  20.153   39.080  0.00  0.00     0.000 C
ENDROOT
BRANCH 1 21
ATOM     21  O4  SGN D   2      95.360  17.810   41.420  0.00  0.00     0.000 O
BRANCH 21 25
ATOM     22  C1  IDS D   3      92.290  15.980   40.610  0.00  0.00     0.000 C
ATOM     23  C2  IDS D   3      92.760  16.093   42.090  0.00  0.00     0.000 C
ATOM     24  C3  IDS D   3      94.270  15.782   42.290  0.00  0.00     0.000 C
ATOM     25  C4  IDS D   3      95.170  16.415   41.210  0.00  0.00     0.000 C
ATOM     26  C5  IDS D   3      94.590  16.115   39.810  0.00  0.00     0.000 C
ATOM     27  O5  IDS D   3      93.240  16.609   39.740  0.00  0.00     0.000 O
ATOM     28   O  IDS D   3      92.500  17.415   42.530  0.00  0.00     0.000 O
ATOM     29   S  IDS D   3      91.220  17.966   43.260  0.00  0.00     0.000 S
ATOM     30   O  IDS D   3      90.860  17.000   44.260  0.00  0.00     0.000 OA
ATOM     31   O  IDS D   3      91.620  19.226   43.820  0.00  0.00     0.000 OA
ATOM     32   O  IDS D   3      90.210  18.120   42.250  0.00  0.00     0.000 OA
ATOM     33   O  IDS D   3      94.460  14.380   42.260  0.00  0.00     0.000 O
ATOM     35  HD  IDS D   3      94.960  14.880   42.760  0.00  0.00     0.000 HD
ATOM     35   O  IDS D   3      96.330  16.078   38.180  0.00  0.00     0.000 OA
ATOM     36   C  IDS D   3      95.400  16.694   38.650  0.00  0.00     0.000 C
ATOM     37   O  IDS D   3      95.150  17.781   38.180  0.00  0.00     0.000 OA
BRANCH 22 38
ATOM     38  O4  IDS D   3      92.120  14.621   40.320  0.00  0.00     0.000 O
BRANCH 38 42
ATOM     39  C1  SGN D   4      89.690  12.595   37.430  0.00  0.00     0.000 C
ATOM     40  C2  SGN D   4      91.160  12.993   37.160  0.00  0.00     0.000 C
ATOM     41  C3  SGN D   4      91.910  13.156   38.490  0.00  0.00     0.000 C
ATOM     42  C4  SGN D   4      91.210  14.280   39.290  0.00  0.00     0.000 C
ATOM     43  C5  SGN D   4      89.730  13.848   39.540  0.00  0.00     0.000 C
ATOM     44  O5  SGN D   4      89.060  13.564   38.280  0.00  0.00     0.000 O
ATOM     45   N  SGN D   4      91.770  11.959   36.310  0.00  0.00     0.000 N
ATOM     47  HD  SGN D   4      92.270  12.459   36.810  0.00  0.00     0.000 HD
ATOM     47   S  SGN D   4      92.990  12.381   35.280  0.00  0.00     0.000 S
ATOM     48   O  SGN D   4      92.790  13.742   34.860  0.00  0.00     0.000 OA
ATOM     49   O  SGN D   4      94.210  12.190   36.020  0.00  0.00     0.000 OA
ATOM     50   O  SGN D   4      92.870  11.470   34.180  0.00  0.00     0.000 OA
ATOM     51   O  SGN D   4      93.250  13.529   38.250  0.00  0.00     0.000 O
ATOM     53  HD  SGN D   4      93.750  14.029   38.750  0.00  0.00     0.000 HD
ATOM     53   C  SGN D   4      88.870  14.879   40.290  0.00  0.00     0.000 C
ATOM     54   O  SGN D   4      89.080  16.158   39.720  0.00  0.00     0.000 O
ATOM     55   S  SGN D   4      88.120  16.980   38.800  0.00  0.00     0.000 S
ATOM     56   O  SGN D   4      88.890  18.026   38.210  0.00  0.00     0.000 OA
ATOM     57   O  SGN D   4      87.620  16.043   37.830  0.00  0.00     0.000 OA
ATOM     58   O  SGN D   4      87.080  17.467   39.670  0.00  0.00     0.000 OA
BRANCH 39 59
ATOM     59  O4  SGN D   4      89.590  11.304   37.990  0.00  0.00     0.000 O
BRANCH 59 63
ATOM     60  C1  IDS D   5      88.640   7.737   38.430  0.00  0.00     0.000 C
ATOM     61  C2  IDS D   5      88.740   8.306   36.980  0.00  0.00     0.000 C
ATOM     62  C3  IDS D   5      88.120   9.724   36.780  0.00  0.00     0.000 C
ATOM     63  C4  IDS D   5      88.310  10.672   38.000  0.00  0.00     0.000 C
ATOM     64  C5  IDS D   5      88.010   9.902   39.310  0.00  0.00     0.000 C
ATOM     65  O5  IDS D   5      88.890   8.769   39.380  0.00  0.00     0.000 O
ATOM     66   O  IDS D   5      90.110   8.366   36.640  0.00  0.00     0.000 O
ATOM     67   S  IDS D   5      90.790   8.156   35.240  0.00  0.00     0.000 S
ATOM     68   O  IDS D   5      91.160   9.459   34.780  0.00  0.00     0.000 OA
ATOM     69   O  IDS D   5      91.920   7.311   35.500  0.00  0.00     0.000 OA
ATOM     70   O  IDS D   5      89.830   7.523   34.390  0.00  0.00     0.000 OA
ATOM     71   O  IDS D   5      86.730   9.592   36.540  0.00  0.00     0.000 O
ATOM     73  HD  IDS D   5      87.230  10.092   37.040  0.00  0.00     0.000 HD
ATOM     73   O  IDS D   5      89.190  10.776   41.200  0.00  0.00     0.000 OA
ATOM     74   O  IDS D   5      87.210  11.362   41.010  0.00  0.00     0.000 OA
ATOM     75   C  IDS D   5      88.150  10.727   40.580  0.00  0.00     0.000 C
BRANCH 60 76
ATOM     76  O4  IDS D   5      87.370   7.131   38.620  0.00  0.00     0.000 O
BRANCH 76 80
ATOM     77  C1  SGN D   6      86.080   4.522   41.850  0.00  0.00     0.000 C
ATOM     78  C2  SGN D   6      87.570   4.972   41.860  0.00  0.00     0.000 C
ATOM     79  C3  SGN D   6      87.700   6.332   41.160  0.00  0.00     0.000 C
ATOM     80  C4  SGN D   6      87.230   6.158   39.680  0.00  0.00     0.000 C
ATOM     81  C5  SGN D   6      85.730   5.691   39.720  0.00  0.00     0.000 C
ATOM     82  O5  SGN D   6      85.590   4.475   40.510  0.00  0.00     0.000 O
ATOM     83   O  SGN D   6      85.280   5.378   42.630  0.00  0.00     0.000 OA
ATOM     84   N  SGN D   6      88.010   5.035   43.260  0.00  0.00     0.000 N
ATOM     86  HD  SGN D   6      88.510   5.535   43.760  0.00  0.00     0.000 HD
ATOM     86   S  SGN D   6      89.600   4.763   43.610  0.00  0.00     0.000 S
ATOM     87   O  SGN D   6      90.130   3.839   42.650  0.00  0.00     0.000 OA
ATOM     88   O  SGN D   6      90.240   6.046   43.560  0.00  0.00     0.000 OA
ATOM     89   O  SGN D   6      89.590   4.210   44.930  0.00  0.00     0.000 OA
ATOM     90   O  SGN D   6      89.050   6.736   41.180  0.00  0.00     0.000 O
ATOM     92  HD  SGN D   6      89.550   7.236   41.680  0.00  0.00     0.000 HD
ATOM     92   C  SGN D   6      85.100   5.414   38.340  0.00  0.00     0.000 C
ATOM     93   O  SGN D   6      84.040   4.480   38.510  0.00  0.00     0.000 O
ATOM     94   S  SGN D   6      82.750   4.300   37.650  0.00  0.00     0.000 S
ATOM     95   O  SGN D   6      81.820   3.544   38.440  0.00  0.00     0.000 OA
ATOM     96   O  SGN D   6      82.280   5.636   37.380  0.00  0.00     0.000 OA
ATOM     97   O  SGN D   6      83.160   3.616   36.450  0.00  0.00     0.000 OA
ENDBRANCH 76 80
ENDBRANCH 60 76
ENDBRANCH 59 63
ENDBRANCH 39 59
ENDBRANCH 38 42
ENDBRANCH 22 38
ENDBRANCH 21 25
ENDBRANCH 1 21
TORSDOF 8