ROOT
ATOM      1  C1  IDS A  61      17.780  33.335   35.700  0.00  0.00     0.000 C
ATOM      2  C2  IDS A  61      18.510  32.342   34.790  0.00  0.00     0.000 C
ATOM      3  C3  IDS A  61      18.820  31.013   35.480  0.00  0.00     0.000 C
ATOM      4  C4  IDS A  61      17.720  30.567   36.390  0.00  0.00     0.000 C
ATOM      5  C5  IDS A  61      16.650  31.367   36.640  0.00  0.00     0.000 C
ATOM      6  O5  IDS A  61      16.590  32.689   36.220  0.00  0.00     0.000 O
ATOM      7   O  IDS A  61      17.690  32.004   33.660  0.00  0.00     0.000 O
ATOM      8   S  IDS A  61      16.300  32.984   33.130  0.00  0.00     0.000 S
ATOM      9   O  IDS A  61      15.290  32.918   34.160  0.00  0.00     0.000 OA
ATOM     10   O  IDS A  61      15.710  32.410   31.970  0.00  0.00     0.000 OA
ATOM     11   O  IDS A  61      16.780  34.338   32.900  0.00  0.00     0.000 OA
ATOM     12   O  IDS A  61      20.010  31.213   36.160  0.00  0.00     0.000 O
ATOM     14  HD  IDS A  61      20.510  31.713   36.660  0.00  0.00     0.000 HD
ATOM     14   C  IDS A  61      15.350  30.777   37.320  0.00  0.00     0.000 C
ATOM     15   O  IDS A  61      15.320  29.595   37.670  0.00  0.00     0.000 OA
ATOM     16   O  IDS A  61      14.340  31.504   37.480  0.00  0.00     0.000 OA
ENDROOT
BRANCH 1 17
ATOM     17  O4  SGN A  62      18.660  33.670   36.790  0.00  0.00     0.000 O
BRANCH 17 21
ATOM     18  C1  SGN A  62      18.290  36.351   40.100  0.00  0.00     0.000 C
ATOM     19  C2  SGN A  62      17.340  35.167   39.960  0.00  0.00     0.000 C
ATOM     20  C3  SGN A  62      17.920  34.058   39.080  0.00  0.00     0.000 C
ATOM     21  C4  SGN A  62      18.140  34.651   37.680  0.00  0.00     0.000 C
ATOM     22  C5  SGN A  62      19.210  35.742   37.870  0.00  0.00     0.000 C
ATOM     23  O5  SGN A  62      18.710  36.775   38.760  0.00  0.00     0.000 O
ATOM     24   O  SGN A  62      15.650  34.294   43.330  0.00  0.00     0.000 OA
ATOM     25   O  SGN A  62      14.610  34.553   41.190  0.00  0.00     0.000 OA
ATOM     26   O  SGN A  62      15.540  36.417   42.230  0.00  0.00     0.000 OA
ATOM     27   N  SGN A  62      17.160  34.583   41.250  0.00  0.00     0.000 N
ATOM     29  HD  SGN A  62      17.660  35.083   41.750  0.00  0.00     0.000 HD
ATOM     29   S  SGN A  62      15.660  34.987   42.060  0.00  0.00     0.000 S
ATOM     30   O  SGN A  62      16.980  33.020   39.040  0.00  0.00     0.000 O
ATOM     32  HD  SGN A  62      17.480  33.520   39.540  0.00  0.00     0.000 HD
ATOM     32   S  SGN A  62      21.990  36.396   35.440  0.00  0.00     0.000 S
ATOM     33   O  SGN A  62      21.700  37.249   34.340  0.00  0.00     0.000 OA
ATOM     34   O  SGN A  62      22.910  35.367   35.050  0.00  0.00     0.000 OA
ATOM     35   O  SGN A  62      22.550  37.112   36.590  0.00  0.00     0.000 OA
ATOM     36   C  SGN A  62      19.560  36.392   36.550  0.00  0.00     0.000 C
ATOM     37   O  SGN A  62      20.540  35.561   35.950  0.00  0.00     0.000 O
BRANCH 18 38
ATOM     38  O4  IDS A  63      19.370  35.951   40.950  0.00  0.00     0.000 O
BRANCH 38 42
ATOM     39  C1  IDS A  63      20.390  35.288   44.440  0.00  0.00     0.000 C
ATOM     40  C2  IDS A  63      18.920  35.182   43.930  0.00  0.00     0.000 C
ATOM     41  C3  IDS A  63      18.500  36.498   43.260  0.00  0.00     0.000 C
ATOM     42  C4  IDS A  63      19.500  36.830   42.060  0.00  0.00     0.000 C
ATOM     43  C5  IDS A  63      20.960  36.772   42.570  0.00  0.00     0.000 C
ATOM     44  O5  IDS A  63      21.240  35.500   43.290  0.00  0.00     0.000 O
ATOM     45   O  IDS A  63      18.740  34.134   43.020  0.00  0.00     0.000 O
ATOM     46   S  IDS A  63      19.210  32.512   43.540  0.00  0.00     0.000 S
ATOM     47   O  IDS A  63      18.870  31.632   42.430  0.00  0.00     0.000 OA
ATOM     48   O  IDS A  63      18.440  32.223   44.740  0.00  0.00     0.000 OA
ATOM     49   O  IDS A  63      20.600  32.377   43.890  0.00  0.00     0.000 OA
ATOM     50   O  IDS A  63      18.620  37.472   44.280  0.00  0.00     0.000 O
ATOM     52  HD  IDS A  63      19.120  37.972   44.780  0.00  0.00     0.000 HD
ATOM     52   O  IDS A  63      22.000  38.033   40.830  0.00  0.00     0.000 OA
ATOM     53   O  IDS A  63      23.000  36.239   41.510  0.00  0.00     0.000 OA
ATOM     54   C  IDS A  63      22.060  37.034   41.550  0.00  0.00     0.000 C
BRANCH 39 55
ATOM     55  O4  SGN A  64      20.390  36.404   45.380  0.00  0.00     0.000 O
BRANCH 55 59
ATOM     56  C1  SGN A  64      22.930  38.717   47.770  0.00  0.00     0.000 C
ATOM     57  C2  SGN A  64      23.240  38.658   46.300  0.00  0.00     0.000 C
ATOM     58  C3  SGN A  64      22.000  38.237   45.560  0.00  0.00     0.000 C
ATOM     59  C4  SGN A  64      21.580  36.829   46.060  0.00  0.00     0.000 C
ATOM     60  C5  SGN A  64      21.260  36.941   47.560  0.00  0.00     0.000 C
ATOM     61  O5  SGN A  64      22.480  37.418   48.210  0.00  0.00     0.000 O
ATOM     62   S  SGN A  64      24.770  40.165   44.520  0.00  0.00     0.000 S
ATOM     63   O  SGN A  64      26.140  39.970   44.960  0.00  0.00     0.000 OA
ATOM     64   O  SGN A  64      24.560  41.510   44.050  0.00  0.00     0.000 OA
ATOM     65   O  SGN A  64      24.470  39.236   43.440  0.00  0.00     0.000 OA
ATOM     66   N  SGN A  64      23.630  39.975   45.860  0.00  0.00     0.000 N
ATOM     68  HD  SGN A  64      24.130  40.475   46.360  0.00  0.00     0.000 HD
ATOM     68   O  SGN A  64      22.340  38.214   44.220  0.00  0.00     0.000 O
ATOM     70  HD  SGN A  64      22.840  38.714   44.720  0.00  0.00     0.000 HD
ATOM     70   O  SGN A  64      21.770  35.125   49.080  0.00  0.00     0.000 O
ATOM     71   S  SGN A  64      23.310  34.444   48.500  0.00  0.00     0.000 S
ATOM     72   O  SGN A  64      23.000  33.320   47.660  0.00  0.00     0.000 OA
ATOM     73   O  SGN A  64      24.080  34.017   49.640  0.00  0.00     0.000 OA
ATOM     74   O  SGN A  64      24.070  35.425   47.760  0.00  0.00     0.000 OA
ATOM     75   C  SGN A  64      20.850  35.591   48.110  0.00  0.00     0.000 C
BRANCH 56 76
ATOM     76  O4  IDS A  65      21.900  39.697   47.940  0.00  0.00     0.000 O
BRANCH 76 80
ATOM     77  C1  IDS A  65      20.760  43.363   49.580  0.00  0.00     0.000 C
ATOM     78  C2  IDS A  65      22.240  43.384   49.100  0.00  0.00     0.000 C
ATOM     79  C3  IDS A  65      22.430  42.359   48.020  0.00  0.00     0.000 C
ATOM     80  C4  IDS A  65      22.160  40.946   48.590  0.00  0.00     0.000 C
ATOM     81  C5  IDS A  65      21.110  40.921   49.760  0.00  0.00     0.000 C
ATOM     82  O5  IDS A  65      20.180  42.038   49.680  0.00  0.00     0.000 O
ATOM     83   O  IDS A  65      22.560  44.638   48.510  0.00  0.00     0.000 O
ATOM     84   S  IDS A  65      24.260  45.142   48.660  0.00  0.00     0.000 S
ATOM     85   O  IDS A  65      24.910  45.109   47.350  0.00  0.00     0.000 OA
ATOM     86   O  IDS A  65      24.890  44.187   49.550  0.00  0.00     0.000 OA
ATOM     87   O  IDS A  65      24.350  46.478   49.240  0.00  0.00     0.000 OA
ATOM     88   O  IDS A  65      23.750  42.409   47.590  0.00  0.00     0.000 O
ATOM     90  HD  IDS A  65      24.250  42.909   48.090  0.00  0.00     0.000 HD
ATOM     90   O  IDS A  65      20.940  38.539   49.860  0.00  0.00     0.000 OA
ATOM     91   O  IDS A  65      19.030  39.676   49.940  0.00  0.00     0.000 OA
ATOM     92   C  IDS A  65      20.290  39.610   49.860  0.00  0.00     0.000 C
BRANCH 77 93
ATOM     93  O4  SGN A  66      21.280  43.331   50.900  0.00  0.00     0.000 O
BRANCH 93 97
ATOM     94  C1  SGN A  66      21.800  42.346   55.060  0.00  0.00     0.000 C
ATOM     95  C2  SGN A  66      20.480  41.919   54.390  0.00  0.00     0.000 C
ATOM     96  C3  SGN A  66      20.650  41.888   52.870  0.00  0.00     0.000 C
ATOM     97  C4  SGN A  66      21.080  43.285   52.390  0.00  0.00     0.000 C
ATOM     98  C5  SGN A  66      22.350  43.756   53.110  0.00  0.00     0.000 C
ATOM     99  O5  SGN A  66      22.150  43.682   54.560  0.00  0.00     0.000 O
ATOM    100   O  SGN A  66      22.800  41.372   54.710  0.00  0.00     0.000 OA
ATOM    101   N  SGN A  66      20.070  40.579   54.830  0.00  0.00     0.000 N
ATOM    103  HD  SGN A  66      20.570  41.079   55.330  0.00  0.00     0.000 HD
ATOM    103   S  SGN A  66      20.500  39.918   56.430  0.00  0.00     0.000 S
ATOM    104   O  SGN A  66      19.870  38.609   56.550  0.00  0.00     0.000 OA
ATOM    105   O  SGN A  66      19.990  40.844   57.420  0.00  0.00     0.000 OA
ATOM    106   O  SGN A  66      21.930  39.731   56.580  0.00  0.00     0.000 OA
ATOM    107   O  SGN A  66      19.380  41.559   52.300  0.00  0.00     0.000 O
ATOM    109  HD  SGN A  66      19.880  42.059   52.800  0.00  0.00     0.000 HD
ATOM    109   O  SGN A  66      21.640  46.109   53.000  0.00  0.00     0.000 O
ATOM    110   S  SGN A  66      20.820  47.012   51.710  0.00  0.00     0.000 S
ATOM    111   O  SGN A  66      20.130  46.101   50.810  0.00  0.00     0.000 OA
ATOM    112   O  SGN A  66      21.840  47.783   50.990  0.00  0.00     0.000 OA
ATOM    113   O  SGN A  66      19.860  47.912   52.310  0.00  0.00     0.000 OA
ATOM    114   C  SGN A  66      22.710  45.188   52.670  0.00  0.00     0.000 C
ENDBRANCH 93 97
ENDBRANCH 77 93
ENDBRANCH 76 80
ENDBRANCH 56 76
ENDBRANCH 55 59
ENDBRANCH 39 55
ENDBRANCH 38 42
ENDBRANCH 18 38
ENDBRANCH 17 21
ENDBRANCH 1 17
TORSDOF 10