ROOT
ATOM      1  C1  SGN 1 501      29.340  24.902  147.750  0.00  0.00     0.000 C
ATOM      2  C2  SGN 1 501      27.950  25.494  147.490  0.00  0.00     0.000 C
ATOM      3  C3  SGN 1 501      28.040  26.857  146.810  0.00  0.00     0.000 C
ATOM      4  C4  SGN 1 501      28.990  27.765  147.580  0.00  0.00     0.000 C
ATOM      5  C5  SGN 1 501      30.340  27.078  147.720  0.00  0.00     0.000 C
ATOM      6  O5  SGN 1 501      30.170  25.848  148.430  0.00  0.00     0.000 O
ATOM      7   N  SGN 1 501      27.160  24.586  146.680  0.00  0.00     0.000 N
ATOM      9  HD  SGN 1 501      27.660  25.086  147.180  0.00  0.00     0.000 HD
ATOM      9   S  SGN 1 501      25.450  24.320  147.080  0.00  0.00     0.000 S
ATOM     10   O  SGN 1 501      25.290  22.961  147.650  0.00  0.00     0.000 OA
ATOM     11   O  SGN 1 501      24.630  24.451  145.860  0.00  0.00     0.000 OA
ATOM     12   O  SGN 1 501      25.010  25.320  148.080  0.00  0.00     0.000 OA
ATOM     13   O  SGN 1 501      26.760  27.447  146.730  0.00  0.00     0.000 O
ATOM     15  HD  SGN 1 501      27.260  27.947  147.230  0.00  0.00     0.000 HD
ATOM     15   O  SGN 1 501      29.140  29.007  146.890  0.00  0.00     0.000 O
ATOM     17  HD  SGN 1 501      29.640  29.507  147.390  0.00  0.00     0.000 HD
ATOM     17   S  SGN 1 501      31.900  28.325  151.100  0.00  0.00     0.000 S
ATOM     18   O  SGN 1 501      32.110  27.424  152.260  0.00  0.00     0.000 OA
ATOM     19   O  SGN 1 501      30.640  29.075  151.280  0.00  0.00     0.000 OA
ATOM     20   O  SGN 1 501      33.040  29.279  151.010  0.00  0.00     0.000 OA
ATOM     21   C  SGN 1 501      31.360  27.975  148.410  0.00  0.00     0.000 C
ATOM     22   O  SGN 1 501      31.820  27.367  149.610  0.00  0.00     0.000 O
ENDROOT
BRANCH 1 23
ATOM     23  O4  SGN 1 501      29.950  24.468  146.530  0.00  0.00     0.000 O
BRANCH 23 27
ATOM     24  C1  IDS 1 502      32.280  21.606  144.830  0.00  0.00     0.000 C
ATOM     25  C2  IDS 1 502      31.120  21.076  145.640  0.00  0.00     0.000 C
ATOM     26  C3  IDS 1 502      30.090  22.175  145.790  0.00  0.00     0.000 C
ATOM     27  C4  IDS 1 502      30.680  23.251  146.680  0.00  0.00     0.000 C
ATOM     28  C5  IDS 1 502      32.210  23.443  146.530  0.00  0.00     0.000 C
ATOM     29  O5  IDS 1 502      32.810  22.822  145.370  0.00  0.00     0.000 O
ATOM     30   O  IDS 1 502      30.540  19.970  144.950  0.00  0.00     0.000 O
ATOM     31   S  IDS 1 502      30.960  18.340  145.500  0.00  0.00     0.000 S
ATOM     32   O  IDS 1 502      29.770  17.708  146.110  0.00  0.00     0.000 OA
ATOM     33   O  IDS 1 502      32.050  18.415  146.490  0.00  0.00     0.000 OA
ATOM     34   O  IDS 1 502      31.410  17.536  144.340  0.00  0.00     0.000 OA
ATOM     35   O  IDS 1 502      28.920  21.658  146.380  0.00  0.00     0.000 O
ATOM     37  HD  IDS 1 502      29.420  22.158  146.880  0.00  0.00     0.000 HD
ATOM     37   C  IDS 1 502      32.470  24.923  146.290  0.00  0.00     0.000 C
ATOM     38   O  IDS 1 502      33.180  25.550  147.100  0.00  0.00     0.000 OA
ATOM     39   O  IDS 1 502      32.050  25.435  145.230  0.00  0.00     0.000 OA
BRANCH 24 40
ATOM     40  O4  SGN 1 503      33.270  20.595  144.740  0.00  0.00     0.000 O
BRANCH 40 44
ATOM     41  C1  SGN 1 503      35.930  19.313  141.820  0.00  0.00     0.000 C
ATOM     42  C2  SGN 1 503      36.340  20.530  142.640  0.00  0.00     0.000 C
ATOM     43  C3  SGN 1 503      35.510  20.623  143.900  0.00  0.00     0.000 C
ATOM     44  C4  SGN 1 503      34.040  20.645  143.530  0.00  0.00     0.000 C
ATOM     45  C5  SGN 1 503      33.680  19.450  142.660  0.00  0.00     0.000 C
ATOM     46  O5  SGN 1 503      34.540  19.404  141.530  0.00  0.00     0.000 O
ATOM     47   O  SGN 1 503      36.210  18.120  142.550  0.00  0.00     0.000 OA
ATOM     48   O  SGN 1 503      39.010  21.871  141.170  0.00  0.00     0.000 OA
ATOM     49   O  SGN 1 503      40.100  21.621  143.320  0.00  0.00     0.000 OA
ATOM     50   O  SGN 1 503      38.160  23.054  143.100  0.00  0.00     0.000 OA
ATOM     51   N  SGN 1 503      37.740  20.438  142.990  0.00  0.00     0.000 N
ATOM     53  HD  SGN 1 503      38.240  20.938  143.490  0.00  0.00     0.000 HD
ATOM     53   S  SGN 1 503      38.800  21.804  142.630  0.00  0.00     0.000 S
ATOM     54   O  SGN 1 503      35.830  21.800  144.610  0.00  0.00     0.000 O
ATOM     56  HD  SGN 1 503      36.330  22.300  145.110  0.00  0.00     0.000 HD
ATOM     56   S  SGN 1 503      30.780  21.652  140.930  0.00  0.00     0.000 S
ATOM     57   O  SGN 1 503      29.760  22.075  141.910  0.00  0.00     0.000 OA
ATOM     58   O  SGN 1 503      30.230  20.573  140.090  0.00  0.00     0.000 OA
ATOM     59   O  SGN 1 503      31.190  22.794  140.090  0.00  0.00     0.000 OA
ATOM     60   C  SGN 1 503      32.270  19.674  142.150  0.00  0.00     0.000 C
ATOM     61   O  SGN 1 503      32.190  21.049  141.790  0.00  0.00     0.000 O
ENDBRANCH 40 44
ENDBRANCH 24 40
ENDBRANCH 23 27
ENDBRANCH 1 23
TORSDOF 4