ROOT
ATOM      1  C1  IDS B 306     -15.100  57.912   14.020  0.00  0.00     0.000 C
ATOM      2  C2  IDS B 306     -14.900  58.758   12.790  0.00  0.00     0.000 C
ATOM      3  C3  IDS B 306     -14.720  60.276   13.030  0.00  0.00     0.000 C
ATOM      4  C4  IDS B 306     -14.090  60.625   14.430  0.00  0.00     0.000 C
ATOM      5  C5  IDS B 306     -14.410  59.563   15.510  0.00  0.00     0.000 C
ATOM      6  O5  IDS B 306     -14.160  58.277   15.010  0.00  0.00     0.000 O
ATOM      7   O  IDS B 306     -13.770  58.332   12.110  0.00  0.00     0.000 O
ATOM      8   S  IDS B 306     -13.370  58.808   10.700  0.00  0.00     0.000 S
ATOM      9   O  IDS B 306     -14.630  59.182   10.090  0.00  0.00     0.000 OA
ATOM     10   O  IDS B 306     -12.480  59.941   10.880  0.00  0.00     0.000 OA
ATOM     11   O  IDS B 306     -12.720  57.676   10.070  0.00  0.00     0.000 OA
ATOM     12   O  IDS B 306     -16.000  60.882   12.880  0.00  0.00     0.000 O
ATOM     14  HD  IDS B 306     -15.500  61.382   13.380  0.00  0.00     0.000 HD
ATOM     14   O  IDS B 306     -12.690  60.674   14.270  0.00  0.00     0.000 O
ATOM     16  HD  IDS B 306     -12.190  61.174   14.770  0.00  0.00     0.000 HD
ATOM     16   O  IDS B 306     -13.330  60.832   17.250  0.00  0.00     0.000 OA
ATOM     17   C  IDS B 306     -13.720  59.734   16.860  0.00  0.00     0.000 C
ATOM     18   O  IDS B 306     -13.550  58.768   17.600  0.00  0.00     0.000 OA
ENDROOT
BRANCH 1 19
ATOM     19  O4  SGN B 305     -16.420  58.115   14.480  0.00  0.00     0.000 O
BRANCH 19 23
ATOM     20  C1  SGN B 305     -19.100  55.326   15.820  0.00  0.00     0.000 C
ATOM     21  C2  SGN B 305     -18.480  56.277   16.820  0.00  0.00     0.000 C
ATOM     22  C3  SGN B 305     -18.040  57.512   16.120  0.00  0.00     0.000 C
ATOM     23  C4  SGN B 305     -16.970  57.045   15.160  0.00  0.00     0.000 C
ATOM     24  C5  SGN B 305     -17.680  56.188   14.170  0.00  0.00     0.000 C
ATOM     25  O5  SGN B 305     -18.150  55.052   14.800  0.00  0.00     0.000 O
ATOM     26   N  SGN B 305     -19.420  56.541   17.870  0.00  0.00     0.000 N
ATOM     28  HD  SGN B 305     -18.920  57.041   18.370  0.00  0.00     0.000 HD
ATOM     28   S  SGN B 305     -19.510  55.449   19.070  0.00  0.00     0.000 S
ATOM     29   O  SGN B 305     -18.480  54.480   18.900  0.00  0.00     0.000 OA
ATOM     30   O  SGN B 305     -19.310  56.216   20.230  0.00  0.00     0.000 OA
ATOM     31   O  SGN B 305     -20.790  54.856   18.970  0.00  0.00     0.000 OA
ATOM     32   O  SGN B 305     -17.510  58.400   17.040  0.00  0.00     0.000 O
ATOM     34  HD  SGN B 305     -17.010  58.900   17.540  0.00  0.00     0.000 HD
ATOM     34   C  SGN B 305     -16.860  55.732   13.020  0.00  0.00     0.000 C
ATOM     35   O  SGN B 305     -15.760  55.066   13.530  0.00  0.00     0.000 O
ATOM     36   S  SGN B 305     -14.790  54.264   12.670  0.00  0.00     0.000 S
ATOM     37   O  SGN B 305     -13.760  55.218   12.310  0.00  0.00     0.000 OA
ATOM     38   O  SGN B 305     -14.310  53.176   13.490  0.00  0.00     0.000 OA
ATOM     39   O  SGN B 305     -15.580  53.795   11.540  0.00  0.00     0.000 OA
BRANCH 20 40
ATOM     40  O4  IDS B 304     -20.270  55.869   15.290  0.00  0.00     0.000 O
BRANCH 40 44
ATOM     41  C1  IDS B 304     -23.590  56.093   14.180  0.00  0.00     0.000 C
ATOM     42  C2  IDS B 304     -23.250  55.332   15.460  0.00  0.00     0.000 C
ATOM     43  C3  IDS B 304     -22.060  54.358   15.360  0.00  0.00     0.000 C
ATOM     44  C4  IDS B 304     -20.950  54.943   14.510  0.00  0.00     0.000 C
ATOM     45  C5  IDS B 304     -21.490  55.619   13.240  0.00  0.00     0.000 C
ATOM     46  O5  IDS B 304     -22.410  56.595   13.570  0.00  0.00     0.000 O
ATOM     47   O  IDS B 304     -22.940  56.260   16.460  0.00  0.00     0.000 O
ATOM     48   S  IDS B 304     -23.940  57.059   17.300  0.00  0.00     0.000 S
ATOM     49   O  IDS B 304     -25.220  56.763   16.770  0.00  0.00     0.000 OA
ATOM     50   O  IDS B 304     -23.800  56.642   18.660  0.00  0.00     0.000 OA
ATOM     51   O  IDS B 304     -23.560  58.397   17.100  0.00  0.00     0.000 OA
ATOM     52   O  IDS B 304     -22.490  53.154   14.760  0.00  0.00     0.000 O
ATOM     54  HD  IDS B 304     -21.990  53.654   15.260  0.00  0.00     0.000 HD
ATOM     54   O  IDS B 304     -20.180  57.380   12.300  0.00  0.00     0.000 OA
ATOM     55   O  IDS B 304     -19.800  55.514   11.580  0.00  0.00     0.000 OA
ATOM     56   C  IDS B 304     -20.430  56.205   12.310  0.00  0.00     0.000 C
BRANCH 41 57
ATOM     57  O4  SGN B 303     -24.300  55.264   13.320  0.00  0.00     0.000 O
BRANCH 57 61
ATOM     58  C1  SGN B 303     -27.030  55.610   10.250  0.00  0.00     0.000 C
ATOM     59  C2  SGN B 303     -25.570  55.584    9.830  0.00  0.00     0.000 C
ATOM     60  C3  SGN B 303     -24.710  55.068   10.980  0.00  0.00     0.000 C
ATOM     61  C4  SGN B 303     -24.930  55.898   12.250  0.00  0.00     0.000 C
ATOM     62  C5  SGN B 303     -26.430  55.936   12.530  0.00  0.00     0.000 C
ATOM     63  O5  SGN B 303     -27.150  56.416   11.410  0.00  0.00     0.000 O
ATOM     64   N  SGN B 303     -25.410  54.745    8.660  0.00  0.00     0.000 N
ATOM     66  HD  SGN B 303     -24.910  55.245    9.160  0.00  0.00     0.000 HD
ATOM     66   S  SGN B 303     -25.950  55.261    7.200  0.00  0.00     0.000 S
ATOM     67   O  SGN B 303     -27.180  55.969    7.400  0.00  0.00     0.000 OA
ATOM     68   O  SGN B 303     -24.930  56.125    6.680  0.00  0.00     0.000 OA
ATOM     69   O  SGN B 303     -26.120  54.060    6.440  0.00  0.00     0.000 OA
ATOM     70   O  SGN B 303     -23.350  55.165   10.610  0.00  0.00     0.000 O
ATOM     72  HD  SGN B 303     -22.850  55.665   11.110  0.00  0.00     0.000 HD
ATOM     72   C  SGN B 303     -26.790  56.839   13.700  0.00  0.00     0.000 C
ATOM     73   O  SGN B 303     -26.160  58.058   13.440  0.00  0.00     0.000 O
ATOM     74   S  SGN B 303     -26.640  59.464   13.840  0.00  0.00     0.000 S
ATOM     75   O  SGN B 303     -26.770  59.481   15.250  0.00  0.00     0.000 OA
ATOM     76   O  SGN B 303     -25.600  60.334   13.380  0.00  0.00     0.000 OA
ATOM     77   O  SGN B 303     -27.900  59.641   13.200  0.00  0.00     0.000 OA
BRANCH 58 78
ATOM     78  O4  IDS B 302     -27.500  54.294   10.460  0.00  0.00     0.000 O
BRANCH 78 82
ATOM     79  C1  IDS B 302     -29.180  51.323   11.050  0.00  0.00     0.000 C
ATOM     80  C2  IDS B 302     -28.860  51.716    9.640  0.00  0.00     0.000 C
ATOM     81  C3  IDS B 302     -29.270  53.144    9.290  0.00  0.00     0.000 C
ATOM     82  C4  IDS B 302     -28.900  54.140   10.370  0.00  0.00     0.000 C
ATOM     83  C5  IDS B 302     -29.410  53.605   11.670  0.00  0.00     0.000 C
ATOM     84  O5  IDS B 302     -28.800  52.357   11.940  0.00  0.00     0.000 O
ATOM     85   S  IDS B 302     -26.740  50.669    8.560  0.00  0.00     0.000 S
ATOM     86   O  IDS B 302     -27.330  50.827    7.280  0.00  0.00     0.000 OA
ATOM     87   O  IDS B 302     -25.380  51.074    8.630  0.00  0.00     0.000 OA
ATOM     88   O  IDS B 302     -26.940  49.374    9.110  0.00  0.00     0.000 OA
ATOM     89   O  IDS B 302     -27.500  51.637    9.470  0.00  0.00     0.000 O
ATOM     90   O  IDS B 302     -30.670  53.167    9.150  0.00  0.00     0.000 O
ATOM     92  HD  IDS B 302     -30.170  53.667    9.650  0.00  0.00     0.000 HD
ATOM     92   O  IDS B 302     -28.700  54.264   13.870  0.00  0.00     0.000 OA
ATOM     93   O  IDS B 302     -29.760  55.722   12.750  0.00  0.00     0.000 OA
ATOM     94   C  IDS B 302     -29.280  54.585   12.830  0.00  0.00     0.000 C
BRANCH 79 95
ATOM     95  O4  SGN B 301     -30.530  51.013   11.150  0.00  0.00     0.000 O
BRANCH 95 99
ATOM     96  C1  SGN B 301     -32.950  48.997   13.850  0.00  0.00     0.000 C
ATOM     97  C2  SGN B 301     -32.230  50.227   14.390  0.00  0.00     0.000 C
ATOM     98  C3  SGN B 301     -31.880  51.094   13.180  0.00  0.00     0.000 C
ATOM     99  C4  SGN B 301     -30.880  50.280   12.310  0.00  0.00     0.000 C
ATOM    100  C5  SGN B 301     -31.620  48.981   11.880  0.00  0.00     0.000 C
ATOM    101  O5  SGN B 301     -32.090  48.252   13.010  0.00  0.00     0.000 O
ATOM    102   O  SGN B 301     -34.130  49.414   13.120  0.00  0.00     0.000 OA
ATOM    103   N  SGN B 301     -33.060  50.920   15.380  0.00  0.00     0.000 N
ATOM    105  HD  SGN B 301     -32.560  51.420   15.880  0.00  0.00     0.000 HD
ATOM    105   S  SGN B 301     -32.810  50.559   16.980  0.00  0.00     0.000 S
ATOM    106   O  SGN B 301     -31.730  49.599   17.050  0.00  0.00     0.000 OA
ATOM    107   O  SGN B 301     -32.480  51.801   17.640  0.00  0.00     0.000 OA
ATOM    108   O  SGN B 301     -34.050  49.991   17.460  0.00  0.00     0.000 OA
ATOM    109   O  SGN B 301     -31.260  52.276   13.620  0.00  0.00     0.000 O
ATOM    111  HD  SGN B 301     -30.760  52.776   14.120  0.00  0.00     0.000 HD
ATOM    111   C  SGN B 301     -30.810  47.992   11.050  0.00  0.00     0.000 C
ATOM    112   O  SGN B 301     -29.740  47.503   11.820  0.00  0.00     0.000 O
ATOM    113   S  SGN B 301     -28.660  46.467   11.340  0.00  0.00     0.000 S
ATOM    114   O  SGN B 301     -28.340  46.829    9.980  0.00  0.00     0.000 OA
ATOM    115   O  SGN B 301     -27.520  46.620   12.230  0.00  0.00     0.000 OA
ATOM    116   O  SGN B 301     -29.290  45.170   11.440  0.00  0.00     0.000 OA
ENDBRANCH 95 99
ENDBRANCH 79 95
ENDBRANCH 78 82
ENDBRANCH 58 78
ENDBRANCH 57 61
ENDBRANCH 41 57
ENDBRANCH 40 44
ENDBRANCH 20 40
ENDBRANCH 19 23
ENDBRANCH 1 19
TORSDOF 10