ROOT
ATOM      1  C1  IDU A1623      63.660  41.421   36.380  0.00  0.00     0.000 C
ATOM      2  C2  IDU A1623      64.100  42.053   35.050  0.00  0.00     0.000 C
ATOM      3  C3  IDU A1623      63.170  43.217   34.680  0.00  0.00     0.000 C
ATOM      4  C4  IDU A1623      63.260  44.265   35.800  0.00  0.00     0.000 C
ATOM      5  C5  IDU A1623      62.870  43.623   37.150  0.00  0.00     0.000 C
ATOM      6  O5  IDU A1623      63.760  42.474   37.400  0.00  0.00     0.000 O
ATOM      7   O  IDU A1623      65.410  42.530   35.220  0.00  0.00     0.000 O
ATOM      8   S  IDU A1623      66.310  42.973   33.800  0.00  0.00     0.000 S
ATOM      9   O  IDU A1623      67.600  43.402   34.250  0.00  0.00     0.000 OA
ATOM     10   O  IDU A1623      65.660  44.071   33.100  0.00  0.00     0.000 OA
ATOM     11   O  IDU A1623      66.360  41.898   32.890  0.00  0.00     0.000 OA
ATOM     12   O  IDU A1623      61.850  42.761   34.580  0.00  0.00     0.000 O
ATOM     14  HD  IDU A1623      62.350  43.261   35.080  0.00  0.00     0.000 HD
ATOM     14   C  IDU A1623      63.010  44.665   38.220  0.00  0.00     0.000 C
ATOM     15   O  IDU A1623      62.310  45.693   38.130  0.00  0.00     0.000 OA
ATOM     16   O  IDU A1623      63.810  44.450   39.150  0.00  0.00     0.000 OA
ENDROOT
BRANCH 1 17
ATOM     17  O4  SGN A5702      64.420  40.270   36.690  0.00  0.00     0.000 O
BRANCH 17 21
ATOM     18  C1  SGN A5702      63.060  37.194   39.210  0.00  0.00     0.000 C
ATOM     19  C2  SGN A5702      62.880  38.624   39.690  0.00  0.00     0.000 C
ATOM     20  C3  SGN A5702      62.860  39.567   38.520  0.00  0.00     0.000 C
ATOM     21  C4  SGN A5702      64.270  39.426   37.870  0.00  0.00     0.000 C
ATOM     22  C5  SGN A5702      64.410  37.972   37.370  0.00  0.00     0.000 C
ATOM     23  O5  SGN A5702      64.280  37.100   38.470  0.00  0.00     0.000 O
ATOM     24   O  SGN A5702      61.980  36.738   38.440  0.00  0.00     0.000 OA
ATOM     25   N  SGN A5702      61.650  38.688   40.400  0.00  0.00     0.000 N
ATOM     27  HD  SGN A5702      62.150  39.188   40.900  0.00  0.00     0.000 HD
ATOM     27   S  SGN A5702      61.890  38.667   42.150  0.00  0.00     0.000 S
ATOM     28   O  SGN A5702      62.760  37.562   42.480  0.00  0.00     0.000 OA
ATOM     29   O  SGN A5702      60.630  38.422   42.780  0.00  0.00     0.000 OA
ATOM     30   O  SGN A5702      62.440  39.969   42.470  0.00  0.00     0.000 OA
ATOM     31   O  SGN A5702      62.690  40.878   39.000  0.00  0.00     0.000 O
ATOM     33  HD  SGN A5702      63.190  41.378   39.500  0.00  0.00     0.000 HD
ATOM     33   C  SGN A5702      65.750  37.713   36.750  0.00  0.00     0.000 C
ATOM     34   O  SGN A5702      65.580  38.165   35.420  0.00  0.00     0.000 O
ATOM     35   S  SGN A5702      66.450  37.359   34.160  0.00  0.00     0.000 S
ATOM     36   O  SGN A5702      65.800  37.506   32.900  0.00  0.00     0.000 OA
ATOM     37   O  SGN A5702      66.540  35.964   34.490  0.00  0.00     0.000 OA
ATOM     38   O  SGN A5702      67.730  38.007   34.110  0.00  0.00     0.000 OA
ENDBRANCH 17 21
ENDBRANCH 1 17
TORSDOF 2