MODEL 1
REMARK VINA RESULT:      -5.0      0.000      0.000
ROOT
ATOM      1  C1  IDU A1623      63.827  43.722  37.0080  0.00  0.00     0.000 C
ATOM      2  C2  IDU A1623      63.469  44.649  35.8350  0.00  0.00     0.000 C
ATOM      3  C3  IDU A1623      63.751  46.111  36.2060  0.00  0.00     0.000 C
ATOM      4  C4  IDU A1623      65.250  46.237  36.5190  0.00  0.00     0.000 C
ATOM      5  C5  IDU A1623      65.628  45.269  37.6630  0.00  0.00     0.000 C
ATOM      6  O5  IDU A1623      65.264  43.898  37.2600  0.00  0.00     0.000 O
ATOM      7   O  IDU A1623      64.268  44.276  34.7420  0.00  0.00     0.000 O
ATOM      8   S  IDU A1623      63.846  44.895  33.1720  0.00  0.00     0.000 S
ATOM      9   O  IDU A1623      64.798  44.353  32.2490  0.00  0.00     0.000 OA
ATOM     10   O  IDU A1623      63.935  46.347  33.1510  0.00  0.00     0.000 OA
ATOM     11   O  IDU A1623      62.510  44.575  32.8560  0.00  0.00     0.000 OA
ATOM     12   O  IDU A1623      63.011  46.468  37.3400  0.00  0.00     0.000 O
ATOM     14  HD  IDU A1623      63.828  46.327  37.0900  0.00  0.00     0.000 HD
ATOM     14   C  IDU A1623      67.103  45.393  37.9090  0.00  0.00     0.000 C
ATOM     15   O  IDU A1623      67.546  46.505  38.2580  0.00  0.00     0.000 OA
ATOM     16   O  IDU A1623      67.811  44.379  37.7620  0.00  0.00     0.000 OA
ENDROOT
BRANCH 1 17
ATOM     17  O4  SGN A5702      63.467  42.381  36.7460  0.00  0.00     0.000 O
BRANCH 17 21
ATOM     18  C1  SGN A5702      63.042  38.573  38.4720  0.00  0.00     0.000 C
ATOM     19  C2  SGN A5702      62.883  39.778  39.3840  0.00  0.00     0.000 C
ATOM     20  C3  SGN A5702      62.490  40.988  38.5840  0.00  0.00     0.000 C
ATOM     21  C4  SGN A5702      63.691  41.237  37.6230  0.00  0.00     0.000 C
ATOM     22  C5  SGN A5702      63.808  40.009  36.6940  0.00  0.00     0.000 C
ATOM     23  O5  SGN A5702      64.033  38.864  37.4840  0.00  0.00     0.000 O
ATOM     24   O  SGN A5702      61.838  38.187  37.8650  0.00  0.00     0.000 OA
ATOM     25   N  SGN A5702      61.876  39.465  40.3380  0.00  0.00     0.000 N
ATOM     27  HD  SGN A5702      62.448  39.880  40.8390  0.00  0.00     0.000 HD
ATOM     27   S  SGN A5702      62.560  39.008  41.9020  0.00  0.00     0.000 S
ATOM     28   O  SGN A5702      63.567  37.996  41.6830  0.00  0.00     0.000 OA
ATOM     29   O  SGN A5702      61.527  38.419  42.6960  0.00  0.00     0.000 OA
ATOM     30   O  SGN A5702      63.072  40.242  42.4630  0.00  0.00     0.000 OA
ATOM     31   O  SGN A5702      62.349  42.080  39.4580  0.00  0.00     0.000 O
ATOM     33  HD  SGN A5702      62.922  42.495  39.9590  0.00  0.00     0.000 HD
ATOM     33   C  SGN A5702      64.959  40.128  35.7400  0.00  0.00     0.000 C
ATOM     34   O  SGN A5702      64.418  40.892  34.6790  0.00  0.00     0.000 O
ATOM     35   S  SGN A5702      64.992  40.594  33.0750  0.00  0.00     0.000 S
ATOM     36   O  SGN A5702      64.030  40.978  32.0960  0.00  0.00     0.000 OA
ATOM     37   O  SGN A5702      65.271  39.191  32.9450  0.00  0.00     0.000 OA
ATOM     38   O  SGN A5702      66.163  41.413  32.9340  0.00  0.00     0.000 OA
ENDBRANCH 17 21
ENDBRANCH 1 17
TORSDOF 2
ENDMDL
MODEL 2
REMARK VINA RESULT:      -4.9      3.800      9.195
ROOT
ATOM      1  C1  IDU A1623      63.116  36.236  38.4920  0.00  0.00     0.000 C
ATOM      2  C2  IDU A1623      63.160  35.220  39.6450  0.00  0.00     0.000 C
ATOM      3  C3  IDU A1623      62.688  33.842  39.1590  0.00  0.00     0.000 C
ATOM      4  C4  IDU A1623      63.637  33.388  38.0390  0.00  0.00     0.000 C
ATOM      5  C5  IDU A1623      63.639  34.432  36.8990  0.00  0.00     0.000 C
ATOM      6  O5  IDU A1623      64.033  35.738  37.4580  0.00  0.00     0.000 O
ATOM      7   O  IDU A1623      64.491  35.135  40.0860  0.00  0.00     0.000 O
ATOM      8   S  IDU A1623      64.801  34.345  41.6030  0.00  0.00     0.000 S
ATOM      9   O  IDU A1623      66.215  34.414  41.8180  0.00  0.00     0.000 OA
ATOM     10   O  IDU A1623      64.395  32.949  41.5490  0.00  0.00     0.000 OA
ATOM     11   O  IDU A1623      64.045  34.938  42.6340  0.00  0.00     0.000 OA
ATOM     12   O  IDU A1623      61.386  33.935  38.6510  0.00  0.00     0.000 O
ATOM     14  HD  IDU A1623      62.200  33.798  38.3880  0.00  0.00     0.000 HD
ATOM     14   C  IDU A1623      64.606  33.973  35.8480  0.00  0.00     0.000 C
ATOM     15   O  IDU A1623      64.389  32.878  35.2920  0.00  0.00     0.000 OA
ATOM     16   O  IDU A1623      65.572  34.710  35.5760  0.00  0.00     0.000 OA
ENDROOT
BRANCH 1 17
ATOM     17  O4  SGN A5702      63.428  37.542  38.9330  0.00  0.00     0.000 O
BRANCH 17 21
ATOM     18  C1  SGN A5702      63.574  41.604  37.8660  0.00  0.00     0.000 C
ATOM     19  C2  SGN A5702      62.400  40.787  37.3540  0.00  0.00     0.000 C
ATOM     20  C3  SGN A5702      62.170  39.595  38.2390  0.00  0.00     0.000 C
ATOM     21  C4  SGN A5702      63.472  38.746  38.1110  0.00  0.00     0.000 C
ATOM     22  C5  SGN A5702      64.638  39.593  38.6640  0.00  0.00     0.000 C
ATOM     23  O5  SGN A5702      64.739  40.776  37.9030  0.00  0.00     0.000 O
ATOM     24   O  SGN A5702      63.333  42.173  39.1250  0.00  0.00     0.000 OA
ATOM     25   N  SGN A5702      61.256  41.631  37.3510  0.00  0.00     0.000 N
ATOM     27  HD  SGN A5702      61.142  41.204  36.6060  0.00  0.00     0.000 HD
ATOM     27   S  SGN A5702      60.883  42.241  35.7360  0.00  0.00     0.000 S
ATOM     28   O  SGN A5702      62.088  42.799  35.1670  0.00  0.00     0.000 OA
ATOM     29   O  SGN A5702      59.936  43.305  35.8580  0.00  0.00     0.000 OA
ATOM     30   O  SGN A5702      60.362  41.098  35.0130  0.00  0.00     0.000 OA
ATOM     31   O  SGN A5702      61.078  38.864  37.7380  0.00  0.00     0.000 O
ATOM     33  HD  SGN A5702      60.964  38.437  36.9930  0.00  0.00     0.000 HD
ATOM     33   C  SGN A5702      65.953  38.882  38.5600  0.00  0.00     0.000 C
ATOM     34   O  SGN A5702      65.974  38.076  39.7230  0.00  0.00     0.000 O
ATOM     35   S  SGN A5702      67.499  37.757  40.4760  0.00  0.00     0.000 S
ATOM     36   O  SGN A5702      67.344  37.450  41.8590  0.00  0.00     0.000 OA
ATOM     37   O  SGN A5702      68.328  38.921  40.3350  0.00  0.00     0.000 OA
ATOM     38   O  SGN A5702      68.024  36.608  39.7930  0.00  0.00     0.000 OA
ENDBRANCH 17 21
ENDBRANCH 1 17
TORSDOF 2
ENDMDL
MODEL 3
REMARK VINA RESULT:      -4.7      2.842      9.154
ROOT
ATOM      1  C1  IDU A1623      62.792  37.356  38.7510  0.00  0.00     0.000 C
ATOM      2  C2  IDU A1623      62.140  36.450  39.8070  0.00  0.00     0.000 C
ATOM      3  C3  IDU A1623      61.837  35.068  39.2100  0.00  0.00     0.000 C
ATOM      4  C4  IDU A1623      63.169  34.450  38.7560  0.00  0.00     0.000 C
ATOM      5  C5  IDU A1623      63.856  35.382  37.7330  0.00  0.00     0.000 C
ATOM      6  O5  IDU A1623      64.048  36.705  38.3550  0.00  0.00     0.000 O
ATOM      7   O  IDU A1623      63.048  36.317  40.8700  0.00  0.00     0.000 O
ATOM      8   S  IDU A1623      62.465  35.651  42.3670  0.00  0.00     0.000 S
ATOM      9   O  IDU A1623      63.574  35.644  43.2720  0.00  0.00     0.000 OA
ATOM     10   O  IDU A1623      61.997  34.286  42.1750  0.00  0.00     0.000 OA
ATOM     11   O  IDU A1623      61.358  36.385  42.8370  0.00  0.00     0.000 OA
ATOM     12   O  IDU A1623      60.989  35.201  38.1040  0.00  0.00     0.000 O
ATOM     14  HD  IDU A1623      61.805  34.986  38.3010  0.00  0.00     0.000 HD
ATOM     14   C  IDU A1623      65.167  34.764  37.3470  0.00  0.00     0.000 C
ATOM     15   O  IDU A1623      65.148  33.640  36.8070  0.00  0.00     0.000 OA
ATOM     16   O  IDU A1623      66.210  35.406  37.5740  0.00  0.00     0.000 OA
ENDROOT
BRANCH 1 17
ATOM     17  O4  SGN A5702      62.973  38.673  39.2300  0.00  0.00     0.000 O
BRANCH 17 21
ATOM     18  C1  SGN A5702      64.032  42.594  38.1490  0.00  0.00     0.000 C
ATOM     19  C2  SGN A5702      63.338  41.741  37.1010  0.00  0.00     0.000 C
ATOM     20  C3  SGN A5702      62.536  40.655  37.7610  0.00  0.00     0.000 C
ATOM     21  C4  SGN A5702      63.589  39.780  38.5070  0.00  0.00     0.000 C
ATOM     22  C5  SGN A5702      64.256  40.667  39.5810  0.00  0.00     0.000 C
ATOM     23  O5  SGN A5702      64.879  41.759  38.9440  0.00  0.00     0.000 O
ATOM     24   O  SGN A5702      63.132  43.299  38.9610  0.00  0.00     0.000 OA
ATOM     25   N  SGN A5702      62.489  42.595  36.3450  0.00  0.00     0.000 N
ATOM     27  HD  SGN A5702      62.809  42.091  35.7180  0.00  0.00     0.000 HD
ATOM     27   S  SGN A5702      63.199  43.032  34.7880  0.00  0.00     0.000 S
ATOM     28   O  SGN A5702      64.544  43.509  35.0150  0.00  0.00     0.000 OA
ATOM     29   O  SGN A5702      62.450  44.115  34.2330  0.00  0.00     0.000 OA
ATOM     30   O  SGN A5702      63.127  41.825  33.9900  0.00  0.00     0.000 OA
ATOM     31   O  SGN A5702      61.907  39.889  36.7640  0.00  0.00     0.000 O
ATOM     33  HD  SGN A5702      62.227  39.385  36.1360  0.00  0.00     0.000 HD
ATOM     33   C  SGN A5702      65.316  39.931  40.3450  0.00  0.00     0.000 C
ATOM     34   O  SGN A5702      64.578  39.256  41.3460  0.00  0.00     0.000 O
ATOM     35   S  SGN A5702      65.324  39.000  42.8860  0.00  0.00     0.000 S
ATOM     36   O  SGN A5702      64.354  38.847  43.9180  0.00  0.00     0.000 OA
ATOM     37   O  SGN A5702      66.159  40.131  43.1800  0.00  0.00     0.000 OA
ATOM     38   O  SGN A5702      66.065  37.778  42.7480  0.00  0.00     0.000 OA
ENDBRANCH 17 21
ENDBRANCH 1 17
TORSDOF 2
ENDMDL
MODEL 4
REMARK VINA RESULT:      -4.5      2.263      3.299
ROOT
ATOM      1  C1  IDU A1623      62.662  40.877  37.2790  0.00  0.00     0.000 C
ATOM      2  C2  IDU A1623      62.610  41.363  35.8220  0.00  0.00     0.000 C
ATOM      3  C3  IDU A1623      61.870  42.705  35.7350  0.00  0.00     0.000 C
ATOM      4  C4  IDU A1623      62.641  43.724  36.5880  0.00  0.00     0.000 C
ATOM      5  C5  IDU A1623      62.744  43.217  38.0430  0.00  0.00     0.000 C
ATOM      6  O5  IDU A1623      63.400  41.897  38.0370  0.00  0.00     0.000 O
ATOM      7   O  IDU A1623      63.934  41.523  35.3810  0.00  0.00     0.000 O
ATOM      8   S  IDU A1623      64.210  41.716  33.6760  0.00  0.00     0.000 S
ATOM      9   O  IDU A1623      65.626  41.840  33.5010  0.00  0.00     0.000 OA
ATOM     10   O  IDU A1623      63.562  42.922  33.1820  0.00  0.00     0.000 OA
ATOM     11   O  IDU A1623      63.646  40.642  32.9580  0.00  0.00     0.000 OA
ATOM     12   O  IDU A1623      60.571  42.569  36.2410  0.00  0.00     0.000 O
ATOM     14  HD  IDU A1623      61.327  42.947  36.4280  0.00  0.00     0.000 HD
ATOM     14   C  IDU A1623      63.536  44.218  38.8310  0.00  0.00     0.000 C
ATOM     15   O  IDU A1623      63.091  45.379  38.9180  0.00  0.00     0.000 OA
ATOM     16   O  IDU A1623      64.595  43.839  39.3680  0.00  0.00     0.000 OA
ENDROOT
BRANCH 1 17
ATOM     17  O4  SGN A5702      63.229  39.586  37.3810  0.00  0.00     0.000 O
BRANCH 17 21
ATOM     18  C1  SGN A5702      63.863  36.402  40.0500  0.00  0.00     0.000 C
ATOM     19  C2  SGN A5702      62.769  37.398  40.3950  0.00  0.00     0.000 C
ATOM     20  C3  SGN A5702      62.282  38.087  39.1510  0.00  0.00     0.000 C
ATOM     21  C4  SGN A5702      63.522  38.865  38.6150  0.00  0.00     0.000 C
ATOM     22  C5  SGN A5702      64.603  37.824  38.2490  0.00  0.00     0.000 C
ATOM     23  O5  SGN A5702      64.937  37.092  39.4060  0.00  0.00     0.000 O
ATOM     24   O  SGN A5702      63.405  35.346  39.2470  0.00  0.00     0.000 OA
ATOM     25   N  SGN A5702      61.709  36.677  41.0100  0.00  0.00     0.000 N
ATOM     27  HD  SGN A5702      61.723  37.391  41.5000  0.00  0.00     0.000 HD
ATOM     27   S  SGN A5702      61.720  36.850  42.7680  0.00  0.00     0.000 S
ATOM     28   O  SGN A5702      63.051  36.560  43.2490  0.00  0.00     0.000 OA
ATOM     29   O  SGN A5702      60.841  35.870  43.3270  0.00  0.00     0.000 OA
ATOM     30   O  SGN A5702      61.284  38.209  43.0150  0.00  0.00     0.000 OA
ATOM     31   O  SGN A5702      61.271  38.998  39.5070  0.00  0.00     0.000 O
ATOM     33  HD  SGN A5702      61.285  39.712  39.9970  0.00  0.00     0.000 HD
ATOM     33   C  SGN A5702      65.861  38.467  37.7470  0.00  0.00     0.000 C
ATOM     34   O  SGN A5702      65.586  38.680  36.3750  0.00  0.00     0.000 O
ATOM     35   S  SGN A5702      66.898  38.588  35.2500  0.00  0.00     0.000 S
ATOM     36   O  SGN A5702      66.441  38.261  33.9410  0.00  0.00     0.000 OA
ATOM     37   O  SGN A5702      67.814  37.578  35.7010  0.00  0.00     0.000 OA
ATOM     38   O  SGN A5702      67.475  39.902  35.2350  0.00  0.00     0.000 OA
ENDBRANCH 17 21
ENDBRANCH 1 17
TORSDOF 2
ENDMDL
MODEL 5
REMARK VINA RESULT:      -4.5      2.819      8.319
ROOT
ATOM      1  C1  IDU A1623      64.486  38.337  37.3470  0.00  0.00     0.000 C
ATOM      2  C2  IDU A1623      64.040  36.908  37.6960  0.00  0.00     0.000 C
ATOM      3  C3  IDU A1623      65.138  35.902  37.3230  0.00  0.00     0.000 C
ATOM      4  C4  IDU A1623      66.396  36.257  38.1300  0.00  0.00     0.000 C
ATOM      5  C5  IDU A1623      66.820  37.711  37.8250  0.00  0.00     0.000 C
ATOM      6  O5  IDU A1623      65.692  38.607  38.1420  0.00  0.00     0.000 O
ATOM      7   O  IDU A1623      63.807  36.862  39.0800  0.00  0.00     0.000 O
ATOM      8   S  IDU A1623      62.953  35.490  39.7210  0.00  0.00     0.000 S
ATOM      9   O  IDU A1623      62.837  35.702  41.1320  0.00  0.00     0.000 OA
ATOM     10   O  IDU A1623      63.697  34.263  39.4830  0.00  0.00     0.000 OA
ATOM     11   O  IDU A1623      61.712  35.332  39.0720  0.00  0.00     0.000 OA
ATOM     12   O  IDU A1623      65.426  35.994  35.9560  0.00  0.00     0.000 O
ATOM     14  HD  IDU A1623      65.780  36.162  36.7280  0.00  0.00     0.000 HD
ATOM     14   C  IDU A1623      68.023  38.032  38.6620  0.00  0.00     0.000 C
ATOM     15   O  IDU A1623      69.051  37.347  38.4930  0.00  0.00     0.000 OA
ATOM     16   O  IDU A1623      67.941  38.970  39.4760  0.00  0.00     0.000 OA
ENDROOT
BRANCH 1 17
ATOM     17  O4  SGN A5702      63.452  39.276  37.5650  0.00  0.00     0.000 O
BRANCH 17 21
ATOM     18  C1  SGN A5702      62.232  43.252  36.9570  0.00  0.00     0.000 C
ATOM     19  C2  SGN A5702      63.055  42.596  35.8610  0.00  0.00     0.000 C
ATOM     20  C3  SGN A5702      62.920  41.101  35.9330  0.00  0.00     0.000 C
ATOM     21  C4  SGN A5702      63.521  40.712  37.3180  0.00  0.00     0.000 C
ATOM     22  C5  SGN A5702      62.648  41.371  38.4070  0.00  0.00     0.000 C
ATOM     23  O5  SGN A5702      62.677  42.769  38.2270  0.00  0.00     0.000 O
ATOM     24   O  SGN A5702      60.854  43.040  36.8040  0.00  0.00     0.000 OA
ATOM     25   N  SGN A5702      62.573  43.079  34.6140  0.00  0.00     0.000 N
ATOM     27  HD  SGN A5702      63.427  43.077  34.4660  0.00  0.00     0.000 HD
ATOM     27   S  SGN A5702      63.613  44.338  33.9410  0.00  0.00     0.000 S
ATOM     28   O  SGN A5702      63.847  45.333  34.9620  0.00  0.00     0.000 OA
ATOM     29   O  SGN A5702      62.917  44.981  32.8700  0.00  0.00     0.000 OA
ATOM     30   O  SGN A5702      64.809  43.646  33.5050  0.00  0.00     0.000 OA
ATOM     31   O  SGN A5702      63.691  40.528  34.9050  0.00  0.00     0.000 O
ATOM     33  HD  SGN A5702      64.544  40.527  34.7580  0.00  0.00     0.000 HD
ATOM     33   C  SGN A5702      63.157  41.087  39.7880  0.00  0.00     0.000 C
ATOM     34   O  SGN A5702      62.591  39.824  40.0840  0.00  0.00     0.000 O
ATOM     35   S  SGN A5702      62.174  39.475  41.7270  0.00  0.00     0.000 S
ATOM     36   O  SGN A5702      61.152  38.484  41.8070  0.00  0.00     0.000 OA
ATOM     37   O  SGN A5702      61.712  40.686  42.3460  0.00  0.00     0.000 OA
ATOM     38   O  SGN A5702      63.376  38.964  42.3220  0.00  0.00     0.000 OA
ENDBRANCH 17 21
ENDBRANCH 1 17
TORSDOF 2
ENDMDL
MODEL 6
REMARK VINA RESULT:      -4.2      2.579      8.736
ROOT
ATOM      1  C1  IDU A1623      62.815  38.793  39.0510  0.00  0.00     0.000 C
ATOM      2  C2  IDU A1623      62.030  37.960  40.0770  0.00  0.00     0.000 C
ATOM      3  C3  IDU A1623      62.200  36.462  39.7880  0.00  0.00     0.000 C
ATOM      4  C4  IDU A1623      63.697  36.130  39.8960  0.00  0.00     0.000 C
ATOM      5  C5  IDU A1623      64.499  37.002  38.9040  0.00  0.00     0.000 C
ATOM      6  O5  IDU A1623      64.229  38.421  39.2000  0.00  0.00     0.000 O
ATOM      7   O  IDU A1623      62.545  38.258  41.3490  0.00  0.00     0.000 O
ATOM      8   S  IDU A1623      61.634  37.751  42.7400  0.00  0.00     0.000 S
ATOM      9   O  IDU A1623      62.364  38.191  43.8900  0.00  0.00     0.000 OA
ATOM     10   O  IDU A1623      61.515  36.301  42.7760  0.00  0.00     0.000 OA
ATOM     11   O  IDU A1623      60.319  38.254  42.6810  0.00  0.00     0.000 OA
ATOM     12   O  IDU A1623      61.755  36.171  38.4930  0.00  0.00     0.000 O
ATOM     14  HD  IDU A1623      62.485  36.210  38.9580  0.00  0.00     0.000 HD
ATOM     14   C  IDU A1623      65.954  36.677  39.0690  0.00  0.00     0.000 C
ATOM     15   O  IDU A1623      66.321  35.506  38.8480  0.00  0.00     0.000 OA
ATOM     16   O  IDU A1623      66.727  37.593  39.4090  0.00  0.00     0.000 OA
ENDROOT
BRANCH 1 17
ATOM     17  O4  SGN A5702      62.583  40.178  39.2130  0.00  0.00     0.000 O
BRANCH 17 21
ATOM     18  C1  SGN A5702      63.250  44.000  37.5970  0.00  0.00     0.000 C
ATOM     19  C2  SGN A5702      62.993  42.863  36.6240  0.00  0.00     0.000 C
ATOM     20  C3  SGN A5702      62.231  41.759  37.3020  0.00  0.00     0.000 C
ATOM     21  C4  SGN A5702      63.181  41.253  38.4300  0.00  0.00     0.000 C
ATOM     22  C5  SGN A5702      63.400  42.422  39.4140  0.00  0.00     0.000 C
ATOM     23  O5  SGN A5702      63.985  43.499  38.7170  0.00  0.00     0.000 O
ATOM     24   O  SGN A5702      62.071  44.630  38.0240  0.00  0.00     0.000 OA
ATOM     25   N  SGN A5702      62.242  43.389  35.5370  0.00  0.00     0.000 N
ATOM     27  HD  SGN A5702      62.788  42.865  35.1160  0.00  0.00     0.000 HD
ATOM     27   S  SGN A5702      63.251  43.699  34.1200  0.00  0.00     0.000 S
ATOM     28   O  SGN A5702      64.399  44.472  34.5350  0.00  0.00     0.000 OA
ATOM     29   O  SGN A5702      62.507  44.500  33.1980  0.00  0.00     0.000 OA
ATOM     30   O  SGN A5702      63.578  42.388  33.5970  0.00  0.00     0.000 OA
ATOM     31   O  SGN A5702      62.008  40.727  36.3730  0.00  0.00     0.000 O
ATOM     33  HD  SGN A5702      62.555  40.203  35.9520  0.00  0.00     0.000 HD
ATOM     33   C  SGN A5702      64.330  42.055  40.5310  0.00  0.00     0.000 C
ATOM     34   O  SGN A5702      63.476  41.417  41.4620  0.00  0.00     0.000 O
ATOM     35   S  SGN A5702      63.833  41.576  43.1480  0.00  0.00     0.000 S
ATOM     36   O  SGN A5702      62.666  41.400  43.9470  0.00  0.00     0.000 OA
ATOM     37   O  SGN A5702      64.374  42.886  43.3770  0.00  0.00     0.000 OA
ATOM     38   O  SGN A5702      64.767  40.525  43.4370  0.00  0.00     0.000 OA
ENDBRANCH 17 21
ENDBRANCH 1 17
TORSDOF 2
ENDMDL
MODEL 7
REMARK VINA RESULT:      -4.1      3.556      9.091
ROOT
ATOM      1  C1  IDU A1623      63.166  37.429  40.0870  0.00  0.00     0.000 C
ATOM      2  C2  IDU A1623      63.383  37.103  41.5730  0.00  0.00     0.000 C
ATOM      3  C3  IDU A1623      62.309  36.122  42.0640  0.00  0.00     0.000 C
ATOM      4  C4  IDU A1623      62.433  34.835  41.2340  0.00  0.00     0.000 C
ATOM      5  C5  IDU A1623      62.269  35.163  39.7330  0.00  0.00     0.000 C
ATOM      6  O5  IDU A1623      63.287  36.161  39.3550  0.00  0.00     0.000 O
ATOM      7   O  IDU A1623      64.653  36.517  41.6970  0.00  0.00     0.000 O
ATOM      8   S  IDU A1623      65.331  36.366  43.2910  0.00  0.00     0.000 S
ATOM      9   O  IDU A1623      66.619  35.761  43.1320  0.00  0.00     0.000 OA
ATOM     10   O  IDU A1623      64.501  35.508  44.1250  0.00  0.00     0.000 OA
ATOM     11   O  IDU A1623      65.373  37.620  43.9320  0.00  0.00     0.000 OA
ATOM     12   O  IDU A1623      61.036  36.672  41.8760  0.00  0.00     0.000 O
ATOM     14  HD  IDU A1623      61.542  36.037  41.5760  0.00  0.00     0.000 HD
ATOM     14   C  IDU A1623      62.437  33.891  38.9570  0.00  0.00     0.000 C
ATOM     15   O  IDU A1623      61.637  32.960  39.1790  0.00  0.00     0.000 OA
ATOM     16   O  IDU A1623      63.359  33.828  38.1210  0.00  0.00     0.000 OA
ENDROOT
BRANCH 1 17
ATOM     17  O4  SGN A5702      64.063  38.423  39.6320  0.00  0.00     0.000 O
BRANCH 17 21
ATOM     18  C1  SGN A5702      65.074  41.011  36.4780  0.00  0.00     0.000 C
ATOM     19  C2  SGN A5702      63.616  40.961  36.9040  0.00  0.00     0.000 C
ATOM     20  C3  SGN A5702      63.505  40.487  38.3260  0.00  0.00     0.000 C
ATOM     21  C4  SGN A5702      64.076  39.037  38.3090  0.00  0.00     0.000 C
ATOM     22  C5  SGN A5702      65.562  39.125  37.9000  0.00  0.00     0.000 C
ATOM     23  O5  SGN A5702      65.646  39.707  36.6180  0.00  0.00     0.000 O
ATOM     24   O  SGN A5702      65.819  41.956  37.1980  0.00  0.00     0.000 OA
ATOM     25   N  SGN A5702      63.085  42.273  36.7750  0.00  0.00     0.000 N
ATOM     27  HD  SGN A5702      62.422  41.802  36.4800  0.00  0.00     0.000 HD
ATOM     27   S  SGN A5702      62.124  42.461  35.3050  0.00  0.00     0.000 S
ATOM     28   O  SGN A5702      62.897  41.973  34.1870  0.00  0.00     0.000 OA
ATOM     29   O  SGN A5702      61.890  43.855  35.0880  0.00  0.00     0.000 OA
ATOM     30   O  SGN A5702      60.907  41.714  35.5540  0.00  0.00     0.000 OA
ATOM     31   O  SGN A5702      62.146  40.456  38.6860  0.00  0.00     0.000 O
ATOM     33  HD  SGN A5702      61.482  39.984  38.3910  0.00  0.00     0.000 HD
ATOM     33   C  SGN A5702      66.209  37.775  37.8200  0.00  0.00     0.000 C
ATOM     34   O  SGN A5702      66.583  37.520  39.1610  0.00  0.00     0.000 O
ATOM     35   S  SGN A5702      68.013  36.591  39.4530  0.00  0.00     0.000 S
ATOM     36   O  SGN A5702      68.568  36.876  40.7340  0.00  0.00     0.000 OA
ATOM     37   O  SGN A5702      68.976  36.907  38.4350  0.00  0.00     0.000 OA
ATOM     38   O  SGN A5702      67.588  35.220  39.4160  0.00  0.00     0.000 OA
ENDBRANCH 17 21
ENDBRANCH 1 17
TORSDOF 2
ENDMDL
MODEL 8
REMARK VINA RESULT:      -3.9      3.101      7.033
ROOT
ATOM      1  C1  IDU A1623      63.996  42.081  37.1180  0.00  0.00     0.000 C
ATOM      2  C2  IDU A1623      63.863  42.891  38.4170  0.00  0.00     0.000 C
ATOM      3  C3  IDU A1623      63.227  44.258  38.1300  0.00  0.00     0.000 C
ATOM      4  C4  IDU A1623      61.832  44.011  37.5360  0.00  0.00     0.000 C
ATOM      5  C5  IDU A1623      61.952  43.152  36.2570  0.00  0.00     0.000 C
ATOM      6  O5  IDU A1623      62.634  41.890  36.6000  0.00  0.00     0.000 O
ATOM      7   O  IDU A1623      63.041  42.160  39.2900  0.00  0.00     0.000 O
ATOM      8   S  IDU A1623      62.994  42.638  40.9610  0.00  0.00     0.000 S
ATOM      9   O  IDU A1623      62.106  41.729  41.6220  0.00  0.00     0.000 OA
ATOM     10   O  IDU A1623      62.476  43.992  41.0950  0.00  0.00     0.000 OA
ATOM     11   O  IDU A1623      64.292  42.654  41.5090  0.00  0.00     0.000 OA
ATOM     12   O  IDU A1623      64.005  44.962  37.2040  0.00  0.00     0.000 O
ATOM     14  HD  IDU A1623      63.237  44.569  37.2710  0.00  0.00     0.000 HD
ATOM     14   C  IDU A1623      60.570  42.901  35.7320  0.00  0.00     0.000 C
ATOM     15   O  IDU A1623      59.881  43.887  35.4030  0.00  0.00     0.000 OA
ATOM     16   O  IDU A1623      60.180  41.721  35.6420  0.00  0.00     0.000 OA
ENDROOT
BRANCH 1 17
ATOM     17  O4  SGN A5702      64.689  40.866  37.3260  0.00  0.00     0.000 O
BRANCH 17 21
ATOM     18  C1  SGN A5702      66.435  37.569  35.3910  0.00  0.00     0.000 C
ATOM     19  C2  SGN A5702      66.376  38.880  34.6260  0.00  0.00     0.000 C
ATOM     20  C3  SGN A5702      66.284  40.036  35.5810  0.00  0.00     0.000 C
ATOM     21  C4  SGN A5702      64.933  39.828  36.3300  0.00  0.00     0.000 C
ATOM     22  C5  SGN A5702      65.035  38.504  37.1180  0.00  0.00     0.000 C
ATOM     23  O5  SGN A5702      65.267  37.452  36.2080  0.00  0.00     0.000 O
ATOM     24   O  SGN A5702      67.595  37.444  36.1700  0.00  0.00     0.000 OA
ATOM     25   N  SGN A5702      67.560  38.975  33.8440  0.00  0.00     0.000 N
ATOM     27  HD  SGN A5702      66.974  39.283  33.2860  0.00  0.00     0.000 HD
ATOM     27   S  SGN A5702      67.275  38.559  32.1510  0.00  0.00     0.000 S
ATOM     28   O  SGN A5702      66.577  37.295  32.1010  0.00  0.00     0.000 OA
ATOM     29   O  SGN A5702      68.538  38.376  31.5080  0.00  0.00     0.000 OA
ATOM     30   O  SGN A5702      66.520  39.672  31.6120  0.00  0.00     0.000 OA
ATOM     31   O  SGN A5702      66.234  41.231  34.8400  0.00  0.00     0.000 O
ATOM     33  HD  SGN A5702      65.648  41.538  34.2820  0.00  0.00     0.000 HD
ATOM     33   C  SGN A5702      63.771  38.185  37.8570  0.00  0.00     0.000 C
ATOM     34   O  SGN A5702      63.907  38.922  39.0570  0.00  0.00     0.000 O
ATOM     35   S  SGN A5702      63.211  38.275  40.5030  0.00  0.00     0.000 S
ATOM     36   O  SGN A5702      63.867  38.771  41.6670  0.00  0.00     0.000 OA
ATOM     37   O  SGN A5702      63.329  36.844  40.4640  0.00  0.00     0.000 OA
ATOM     38   O  SGN A5702      61.848  38.725  40.5000  0.00  0.00     0.000 OA
ENDBRANCH 17 21
ENDBRANCH 1 17
TORSDOF 2
ENDMDL
MODEL 9
REMARK VINA RESULT:      -3.9      3.053      7.197
ROOT
ATOM      1  C1  IDU A1623      63.747  43.619  37.1680  0.00  0.00     0.000 C
ATOM      2  C2  IDU A1623      63.722  43.917  38.6750  0.00  0.00     0.000 C
ATOM      3  C3  IDU A1623      62.822  45.127  38.9630  0.00  0.00     0.000 C
ATOM      4  C4  IDU A1623      61.403  44.783  38.4850  0.00  0.00     0.000 C
ATOM      5  C5  IDU A1623      61.430  44.430  36.9810  0.00  0.00     0.000 C
ATOM      6  O5  IDU A1623      62.366  43.309  36.7760  0.00  0.00     0.000 O
ATOM      7   O  IDU A1623      63.209  42.782  39.3240  0.00  0.00     0.000 O
ATOM      8   S  IDU A1623      63.389  42.674  41.0500  0.00  0.00     0.000 S
ATOM      9   O  IDU A1623      62.804  41.428  41.4450  0.00  0.00     0.000 OA
ATOM     10   O  IDU A1623      62.685  43.763  41.7100  0.00  0.00     0.000 OA
ATOM     11   O  IDU A1623      64.745  42.800  41.4150  0.00  0.00     0.000 OA
ATOM     12   O  IDU A1623      63.287  46.246  38.2610  0.00  0.00     0.000 O
ATOM     14  HD  IDU A1623      62.621  45.692  38.2740  0.00  0.00     0.000 HD
ATOM     14   C  IDU A1623      60.037  44.061  36.5630  0.00  0.00     0.000 C
ATOM     15   O  IDU A1623      59.143  44.923  36.6840  0.00  0.00     0.000 OA
ATOM     16   O  IDU A1623      59.841  42.918  36.1090  0.00  0.00     0.000 OA
ENDROOT
BRANCH 1 17
ATOM     17  O4  SGN A5702      64.661  42.587  36.8540  0.00  0.00     0.000 O
BRANCH 17 21
ATOM     18  C1  SGN A5702      66.532  40.441  33.7630  0.00  0.00     0.000 C
ATOM     19  C2  SGN A5702      66.403  41.945  33.5930  0.00  0.00     0.000 C
ATOM     20  C3  SGN A5702      66.270  42.610  34.9330  0.00  0.00     0.000 C
ATOM     21  C4  SGN A5702      64.940  42.053  35.5250  0.00  0.00     0.000 C
ATOM     22  C5  SGN A5702      65.114  40.530  35.7100  0.00  0.00     0.000 C
ATOM     23  O5  SGN A5702      65.381  39.948  34.4540  0.00  0.00     0.000 O
ATOM     24   O  SGN A5702      67.707  40.067  34.4320  0.00  0.00     0.000 OA
ATOM     25   N  SGN A5702      67.570  42.404  32.9240  0.00  0.00     0.000 N
ATOM     27  HD  SGN A5702      66.963  42.883  32.5340  0.00  0.00     0.000 HD
ATOM     27   S  SGN A5702      67.282  42.695  31.2050  0.00  0.00     0.000 S
ATOM     28   O  SGN A5702      66.643  41.527  30.6440  0.00  0.00     0.000 OA
ATOM     29   O  SGN A5702      68.544  42.848  30.5510  0.00  0.00     0.000 OA
ATOM     30   O  SGN A5702      66.469  43.894  31.1580  0.00  0.00     0.000 OA
ATOM     31   O  SGN A5702      66.155  43.998  34.7380  0.00  0.00     0.000 O
ATOM     33  HD  SGN A5702      65.548  44.477  34.3480  0.00  0.00     0.000 HD
ATOM     33   C  SGN A5702      63.875  39.880  36.2490  0.00  0.00     0.000 C
ATOM     34   O  SGN A5702      63.994  40.074  37.6460  0.00  0.00     0.000 O
ATOM     35   S  SGN A5702      63.347  38.865  38.7020  0.00  0.00     0.000 S
ATOM     36   O  SGN A5702      63.995  38.879  39.9710  0.00  0.00     0.000 OA
ATOM     37   O  SGN A5702      63.531  37.579  38.0880  0.00  0.00     0.000 OA
ATOM     38   O  SGN A5702      61.965  39.212  38.8730  0.00  0.00     0.000 OA
ENDBRANCH 17 21
ENDBRANCH 1 17
TORSDOF 2
ENDMDL
MODEL 10
REMARK VINA RESULT:      -3.8      3.905      8.249
ROOT
ATOM      1  C1  IDU A1623      64.833  37.209  37.0410  0.00  0.00     0.000 C
ATOM      2  C2  IDU A1623      65.182  36.094  38.0390  0.00  0.00     0.000 C
ATOM      3  C3  IDU A1623      65.024  34.718  37.3760  0.00  0.00     0.000 C
ATOM      4  C4  IDU A1623      65.989  34.658  36.1810  0.00  0.00     0.000 C
ATOM      5  C5  IDU A1623      65.678  35.810  35.1990  0.00  0.00     0.000 C
ATOM      6  O5  IDU A1623      65.781  37.089  35.9260  0.00  0.00     0.000 O
ATOM      7   O  IDU A1623      66.517  36.279  38.4320  0.00  0.00     0.000 O
ATOM      8   S  IDU A1623      67.093  35.398  39.8160  0.00  0.00     0.000 S
ATOM      9   O  IDU A1623      68.460  35.780  40.0050  0.00  0.00     0.000 OA
ATOM     10   O  IDU A1623      67.028  33.964  39.5760  0.00  0.00     0.000 OA
ATOM     11   O  IDU A1623      66.277  35.649  40.9370  0.00  0.00     0.000 OA
ATOM     12   O  IDU A1623      63.712  34.556  36.9170  0.00  0.00     0.000 O
ATOM     14  HD  IDU A1623      64.518  34.657  36.6180  0.00  0.00     0.000 HD
ATOM     14   C  IDU A1623      66.665  35.741  34.0720  0.00  0.00     0.000 C
ATOM     15   O  IDU A1623      66.683  34.708  33.3730  0.00  0.00     0.000 OA
ATOM     16   O  IDU A1623      67.412  36.720  33.8820  0.00  0.00     0.000 OA
ENDROOT
BRANCH 1 17
ATOM     17  O4  SGN A5702      64.849  38.484  37.6530  0.00  0.00     0.000 O
BRANCH 17 21
ATOM     18  C1  SGN A5702      63.981  42.571  37.2110  0.00  0.00     0.000 C
ATOM     19  C2  SGN A5702      62.863  41.583  36.9260  0.00  0.00     0.000 C
ATOM     20  C3  SGN A5702      63.114  40.291  37.6510  0.00  0.00     0.000 C
ATOM     21  C4  SGN A5702      64.441  39.743  37.0420  0.00  0.00     0.000 C
ATOM     22  C5  SGN A5702      65.558  40.755  37.3710  0.00  0.00     0.000 C
ATOM     23  O5  SGN A5702      65.226  42.000  36.8000  0.00  0.00     0.000 O
ATOM     24   O  SGN A5702      64.037  42.957  38.5580  0.00  0.00     0.000 OA
ATOM     25   N  SGN A5702      61.646  42.171  37.3670  0.00  0.00     0.000 N
ATOM     27  HD  SGN A5702      61.387  41.801  36.6270  0.00  0.00     0.000 HD
ATOM     27   S  SGN A5702      60.708  42.841  36.0280  0.00  0.00     0.000 S
ATOM     28   O  SGN A5702      61.575  43.686  35.2390  0.00  0.00     0.000 OA
ATOM     29   O  SGN A5702      59.676  43.672  36.5660  0.00  0.00     0.000 OA
ATOM     30   O  SGN A5702      60.194  41.690  35.3150  0.00  0.00     0.000 OA
ATOM     31   O  SGN A5702      62.061  39.402  37.3670  0.00  0.00     0.000 O
ATOM     33  HD  SGN A5702      61.803  39.033  36.6270  0.00  0.00     0.000 HD
ATOM     33   C  SGN A5702      66.882  40.342  36.8030  0.00  0.00     0.000 C
ATOM     34   O  SGN A5702      67.386  39.451  37.7800  0.00  0.00     0.000 O
ATOM     35   S  SGN A5702      69.098  39.382  38.0240  0.00  0.00     0.000 S
ATOM     36   O  SGN A5702      69.420  38.921  39.3340  0.00  0.00     0.000 OA
ATOM     37   O  SGN A5702      69.638  40.699  37.8370  0.00  0.00     0.000 OA
ATOM     38   O  SGN A5702      69.580  38.435  37.0590  0.00  0.00     0.000 OA
ENDBRANCH 17 21
ENDBRANCH 1 17
TORSDOF 2
ENDMDL
MODEL 11
REMARK VINA RESULT:      -3.7      2.855      8.261
ROOT
ATOM      1  C1  IDU A1623      64.432  40.080  39.1230  0.00  0.00     0.000 C
ATOM      2  C2  IDU A1623      63.955  38.849  39.9110  0.00  0.00     0.000 C
ATOM      3  C3  IDU A1623      65.090  37.822  40.0300  0.00  0.00     0.000 C
ATOM      4  C4  IDU A1623      66.253  38.490  40.7790  0.00  0.00     0.000 C
ATOM      5  C5  IDU A1623      66.703  39.759  40.0200  0.00  0.00     0.000 C
ATOM      6  O5  IDU A1623      65.545  40.662  39.8840  0.00  0.00     0.000 O
ATOM      7   O  IDU A1623      63.576  39.286  41.1910  0.00  0.00     0.000 O
ATOM      8   S  IDU A1623      62.662  38.195  42.1900  0.00  0.00     0.000 S
ATOM      9   O  IDU A1623      62.396  38.887  43.4150  0.00  0.00     0.000 OA
ATOM     10   O  IDU A1623      63.432  36.994  42.4790  0.00  0.00     0.000 OA
ATOM     11   O  IDU A1623      61.498  37.768  41.5200  0.00  0.00     0.000 OA
ATOM     12   O  IDU A1623      65.522  37.436  38.7560  0.00  0.00     0.000 O
ATOM     14  HD  IDU A1623      65.791  37.880  39.4490  0.00  0.00     0.000 HD
ATOM     14   C  IDU A1623      67.809  40.403  40.8020  0.00  0.00     0.000 C
ATOM     15   O  IDU A1623      68.852  39.745  40.9900  0.00  0.00     0.000 OA
ATOM     16   O  IDU A1623      67.638  41.564  41.2170  0.00  0.00     0.000 OA
ENDROOT
BRANCH 1 17
ATOM     17  O4  SGN A5702      63.378  40.992  38.8890  0.00  0.00     0.000 O
BRANCH 17 21
ATOM     18  C1  SGN A5702      62.201  44.449  36.8080  0.00  0.00     0.000 C
ATOM     19  C2  SGN A5702      63.074  43.449  36.0690  0.00  0.00     0.000 C
ATOM     20  C3  SGN A5702      62.931  42.083  36.6780  0.00  0.00     0.000 C
ATOM     21  C4  SGN A5702      63.463  42.238  38.1350  0.00  0.00     0.000 C
ATOM     22  C5  SGN A5702      62.540  43.238  38.8650  0.00  0.00     0.000 C
ATOM     23  O5  SGN A5702      62.582  44.472  38.1860  0.00  0.00     0.000 O
ATOM     24   O  SGN A5702      60.831  44.175  36.6800  0.00  0.00     0.000 OA
ATOM     25   N  SGN A5702      62.654  43.433  34.7110  0.00  0.00     0.000 N
ATOM     27  HD  SGN A5702      63.514  43.391  34.6140  0.00  0.00     0.000 HD
ATOM     27   S  SGN A5702      63.730  44.374  33.6720  0.00  0.00     0.000 S
ATOM     28   O  SGN A5702      63.917  45.677  34.2660  0.00  0.00     0.000 OA
ATOM     29   O  SGN A5702      63.088  44.568  32.4090  0.00  0.00     0.000 OA
ATOM     30   O  SGN A5702      64.943  43.588  33.5750  0.00  0.00     0.000 OA
ATOM     31   O  SGN A5702      63.749  41.185  35.9700  0.00  0.00     0.000 O
ATOM     33  HD  SGN A5702      64.608  41.142  35.8730  0.00  0.00     0.000 HD
ATOM     33   C  SGN A5702      62.980  43.488  40.2760  0.00  0.00     0.000 C
ATOM     34   O  SGN A5702      62.397  42.413  40.9890  0.00  0.00     0.000 O
ATOM     35   S  SGN A5702      61.900  42.685  42.6240  0.00  0.00     0.000 S
ATOM     36   O  SGN A5702      60.873  41.777  43.0140  0.00  0.00     0.000 OA
ATOM     37   O  SGN A5702      61.412  44.031  42.7330  0.00  0.00     0.000 OA
ATOM     38   O  SGN A5702      63.070  42.446  43.4200  0.00  0.00     0.000 OA
ENDBRANCH 17 21
ENDBRANCH 1 17
TORSDOF 2
ENDMDL
MODEL 12
REMARK VINA RESULT:      -3.7      2.655      8.159
ROOT
ATOM      1  C1  IDU A1623      63.335  40.467  37.9100  0.00  0.00     0.000 C
ATOM      2  C2  IDU A1623      62.779  40.272  39.3290  0.00  0.00     0.000 C
ATOM      3  C3  IDU A1623      62.045  38.928  39.4340  0.00  0.00     0.000 C
ATOM      4  C4  IDU A1623      63.056  37.814  39.1220  0.00  0.00     0.000 C
ATOM      5  C5  IDU A1623      63.659  38.033  37.7160  0.00  0.00     0.000 C
ATOM      6  O5  IDU A1623      64.283  39.369  37.6740  0.00  0.00     0.000 O
ATOM      7   O  IDU A1623      63.868  40.286  40.2160  0.00  0.00     0.000 O
ATOM      8   S  IDU A1623      63.536  40.448  41.9150  0.00  0.00     0.000 S
ATOM      9   O  IDU A1623      64.804  40.452  42.5820  0.00  0.00     0.000 OA
ATOM     10   O  IDU A1623      62.749  39.322  42.3960  0.00  0.00     0.000 OA
ATOM     11   O  IDU A1623      62.767  41.603  42.1620  0.00  0.00     0.000 OA
ATOM     12   O  IDU A1623      61.002  38.879  38.5000  0.00  0.00     0.000 O
ATOM     14  HD  IDU A1623      61.774  38.520  38.6620  0.00  0.00     0.000 HD
ATOM     14   C  IDU A1623      64.668  36.951  37.4680  0.00  0.00     0.000 C
ATOM     15   O  IDU A1623      64.272  35.769  37.4750  0.00  0.00     0.000 OA
ATOM     16   O  IDU A1623      65.850  37.285  37.2570  0.00  0.00     0.000 OA
ENDROOT
BRANCH 1 17
ATOM     17  O4  SGN A5702      63.912  41.747  37.7440  0.00  0.00     0.000 O
BRANCH 17 21
ATOM     18  C1  SGN A5702      65.442  44.439  34.9030  0.00  0.00     0.000 C
ATOM     19  C2  SGN A5702      64.414  43.428  34.4270  0.00  0.00     0.000 C
ATOM     20  C3  SGN A5702      63.570  42.962  35.5800  0.00  0.00     0.000 C
ATOM     21  C4  SGN A5702      64.568  42.251  36.5430  0.00  0.00     0.000 C
ATOM     22  C5  SGN A5702      65.582  43.310  37.0290  0.00  0.00     0.000 C
ATOM     23  O5  SGN A5702      66.259  43.835  35.9100  0.00  0.00     0.000 O
ATOM     24   O  SGN A5702      64.862  45.622  35.3840  0.00  0.00     0.000 OA
ATOM     25   N  SGN A5702      63.605  44.066  33.4460  0.00  0.00     0.000 N
ATOM     27  HD  SGN A5702      63.700  43.281  33.0910  0.00  0.00     0.000 HD
ATOM     27   S  SGN A5702      64.068  43.610  31.8040  0.00  0.00     0.000 S
ATOM     28   O  SGN A5702      65.496  43.784  31.6650  0.00  0.00     0.000 OA
ATOM     29   O  SGN A5702      63.437  44.507  30.8870  0.00  0.00     0.000 OA
ATOM     30   O  SGN A5702      63.622  42.239  31.6530  0.00  0.00     0.000 OA
ATOM     31   O  SGN A5702      62.629  42.031  35.1030  0.00  0.00     0.000 O
ATOM     33  HD  SGN A5702      62.724  41.247  34.7480  0.00  0.00     0.000 HD
ATOM     33   C  SGN A5702      66.616  42.726  37.9430  0.00  0.00     0.000 C
ATOM     34   O  SGN A5702      65.975  42.745  39.2050  0.00  0.00     0.000 O
ATOM     35   S  SGN A5702      66.946  42.985  40.6170  0.00  0.00     0.000 S
ATOM     36   O  SGN A5702      66.182  43.532  41.6890  0.00  0.00     0.000 OA
ATOM     37   O  SGN A5702      68.015  43.885  40.2860  0.00  0.00     0.000 OA
ATOM     38   O  SGN A5702      67.408  41.677  40.9850  0.00  0.00     0.000 OA
ENDBRANCH 17 21
ENDBRANCH 1 17
TORSDOF 2
ENDMDL
MODEL 13
REMARK VINA RESULT:      -3.7      2.239      3.105
ROOT
ATOM      1  C1  IDU A1623      64.312  41.770  34.9850  0.00  0.00     0.000 C
ATOM      2  C2  IDU A1623      64.090  41.846  33.4660  0.00  0.00     0.000 C
ATOM      3  C3  IDU A1623      64.187  43.300  32.9860  0.00  0.00     0.000 C
ATOM      4  C4  IDU A1623      65.594  43.814  33.3240  0.00  0.00     0.000 C
ATOM      5  C5  IDU A1623      65.845  43.692  34.8430  0.00  0.00     0.000 C
ATOM      6  O5  IDU A1623      65.665  42.283  35.2390  0.00  0.00     0.000 O
ATOM      7   O  IDU A1623      65.092  41.077  32.8520  0.00  0.00     0.000 O
ATOM      8   S  IDU A1623      64.900  40.675  31.1720  0.00  0.00     0.000 S
ATOM      9   O  IDU A1623      66.036  39.883  30.8080  0.00  0.00     0.000 OA
ATOM     10   O  IDU A1623      64.876  41.878  30.3540  0.00  0.00     0.000 OA
ATOM     11   O  IDU A1623      63.668  40.025  30.9550  0.00  0.00     0.000 OA
ATOM     12   O  IDU A1623      63.237  44.087  33.6480  0.00  0.00     0.000 O
ATOM     14  HD  IDU A1623      64.093  43.968  33.6020  0.00  0.00     0.000 HD
ATOM     14   C  IDU A1623      67.241  44.164  35.1250  0.00  0.00     0.000 C
ATOM     15   O  IDU A1623      67.528  45.343  34.8380  0.00  0.00     0.000 OA
ATOM     16   O  IDU A1623      68.041  43.361  35.6400  0.00  0.00     0.000 OA
ENDROOT
BRANCH 1 17
ATOM     17  O4  SGN A5702      64.109  40.461  35.4800  0.00  0.00     0.000 O
BRANCH 17 21
ATOM     18  C1  SGN A5702      63.820  38.099  38.9440  0.00  0.00     0.000 C
ATOM     19  C2  SGN A5702      63.266  39.512  39.0110  0.00  0.00     0.000 C
ATOM     20  C3  SGN A5702      62.915  40.000  37.6330  0.00  0.00     0.000 C
ATOM     21  C4  SGN A5702      64.270  40.024  36.8620  0.00  0.00     0.000 C
ATOM     22  C5  SGN A5702      64.791  38.573  36.7880  0.00  0.00     0.000 C
ATOM     23  O5  SGN A5702      64.974  38.090  38.1000  0.00  0.00     0.000 O
ATOM     24   O  SGN A5702      62.875  37.165  38.4960  0.00  0.00     0.000 OA
ATOM     25   N  SGN A5702      62.109  39.482  39.8360  0.00  0.00     0.000 N
ATOM     27  HD  SGN A5702      62.472  40.224  40.0960  0.00  0.00     0.000 HD
ATOM     27   S  SGN A5702      62.439  40.077  41.4670  0.00  0.00     0.000 S
ATOM     28   O  SGN A5702      63.604  39.392  41.9770  0.00  0.00     0.000 OA
ATOM     29   O  SGN A5702      61.337  39.731  42.3100  0.00  0.00     0.000 OA
ATOM     30   O  SGN A5702      62.611  41.508  41.3180  0.00  0.00     0.000 OA
ATOM     31   O  SGN A5702      62.405  41.306  37.7330  0.00  0.00     0.000 O
ATOM     33  HD  SGN A5702      62.768  42.049  37.9930  0.00  0.00     0.000 HD
ATOM     33   C  SGN A5702      66.114  38.481  36.0890  0.00  0.00     0.000 C
ATOM     34   O  SGN A5702      65.751  38.431  34.7220  0.00  0.00     0.000 O
ATOM     35   S  SGN A5702      66.745  37.518  33.6400  0.00  0.00     0.000 S
ATOM     36   O  SGN A5702      66.013  37.089  32.4950  0.00  0.00     0.000 OA
ATOM     37   O  SGN A5702      67.247  36.370  34.3430  0.00  0.00     0.000 OA
ATOM     38   O  SGN A5702      67.783  38.420  33.2280  0.00  0.00     0.000 OA
ENDBRANCH 17 21
ENDBRANCH 1 17
TORSDOF 2
ENDMDL
MODEL 14
REMARK VINA RESULT:      -3.6      3.489      7.271
ROOT
ATOM      1  C1  IDU A1623      64.114  40.588  38.0500  0.00  0.00     0.000 C
ATOM      2  C2  IDU A1623      64.134  41.566  39.2360  0.00  0.00     0.000 C
ATOM      3  C3  IDU A1623      64.085  43.015  38.7320  0.00  0.00     0.000 C
ATOM      4  C4  IDU A1623      62.779  43.195  37.9420  0.00  0.00     0.000 C
ATOM      5  C5  IDU A1623      62.727  42.179  36.7790  0.00  0.00     0.000 C
ATOM      6  O5  IDU A1623      62.850  40.819  37.3360  0.00  0.00     0.000 O
ATOM      7   O  IDU A1623      63.002  41.300  40.0240  0.00  0.00     0.000 O
ATOM      8   S  IDU A1623      62.934  41.993  41.6170  0.00  0.00     0.000 S
ATOM      9   O  IDU A1623      61.702  41.556  42.2010  0.00  0.00     0.000 OA
ATOM     10   O  IDU A1623      62.940  43.446  41.5480  0.00  0.00     0.000 OA
ATOM     11   O  IDU A1623      64.072  41.628  42.3640  0.00  0.00     0.000 OA
ATOM     12   O  IDU A1623      65.173  43.264  37.8870  0.00  0.00     0.000 O
ATOM     14  HD  IDU A1623      64.312  43.180  37.8620  0.00  0.00     0.000 HD
ATOM     14   C  IDU A1623      61.423  42.359  36.0610  0.00  0.00     0.000 C
ATOM     15   O  IDU A1623      61.191  43.467  35.5400  0.00  0.00     0.000 OA
ATOM     16   O  IDU A1623      60.640  41.391  36.0110  0.00  0.00     0.000 OA
ENDROOT
BRANCH 1 17
ATOM     17  O4  SGN A5702      64.280  39.249  38.4720  0.00  0.00     0.000 O
BRANCH 17 21
ATOM     18  C1  SGN A5702      64.991  35.357  37.0540  0.00  0.00     0.000 C
ATOM     19  C2  SGN A5702      65.333  36.513  36.1290  0.00  0.00     0.000 C
ATOM     20  C3  SGN A5702      65.577  37.763  36.9270  0.00  0.00     0.000 C
ATOM     21  C4  SGN A5702      64.217  38.062  37.6270  0.00  0.00     0.000 C
ATOM     22  C5  SGN A5702      63.912  36.883  38.5770  0.00  0.00     0.000 C
ATOM     23  O5  SGN A5702      63.831  35.698  37.8180  0.00  0.00     0.000 O
ATOM     24   O  SGN A5702      66.052  35.004  37.8990  0.00  0.00     0.000 OA
ATOM     25   N  SGN A5702      66.500  36.152  35.4030  0.00  0.00     0.000 N
ATOM     27  HD  SGN A5702      66.038  36.540  34.7810  0.00  0.00     0.000 HD
ATOM     27   S  SGN A5702      66.123  35.615  33.7620  0.00  0.00     0.000 S
ATOM     28   O  SGN A5702      65.083  34.616  33.8350  0.00  0.00     0.000 OA
ATOM     29   O  SGN A5702      67.283  34.986  33.2110  0.00  0.00     0.000 OA
ATOM     30   O  SGN A5702      65.739  36.818  33.0510  0.00  0.00     0.000 OA
ATOM     31   O  SGN A5702      65.892  38.809  36.0420  0.00  0.00     0.000 O
ATOM     33  HD  SGN A5702      65.430  39.197  35.4200  0.00  0.00     0.000 HD
ATOM     33   C  SGN A5702      62.602  37.051  39.2860  0.00  0.00     0.000 C
ATOM     34   O  SGN A5702      62.938  37.869  40.3910  0.00  0.00     0.000 O
ATOM     35   S  SGN A5702      62.064  37.654  41.8690  0.00  0.00     0.000 S
ATOM     36   O  SGN A5702      62.825  38.088  42.9930  0.00  0.00     0.000 OA
ATOM     37   O  SGN A5702      61.752  36.259  42.0140  0.00  0.00     0.000 OA
ATOM     38   O  SGN A5702      60.896  38.479  41.7410  0.00  0.00     0.000 OA
ENDBRANCH 17 21
ENDBRANCH 1 17
TORSDOF 2
ENDMDL
MODEL 15
REMARK VINA RESULT:      -3.5      3.992      8.432
ROOT
ATOM      1  C1  IDU A1623      63.756  38.880  37.5800  0.00  0.00     0.000 C
ATOM      2  C2  IDU A1623      63.407  39.472  38.9550  0.00  0.00     0.000 C
ATOM      3  C3  IDU A1623      62.118  38.839  39.4970  0.00  0.00     0.000 C
ATOM      4  C4  IDU A1623      62.357  37.328  39.6350  0.00  0.00     0.000 C
ATOM      5  C5  IDU A1623      62.760  36.734  38.2670  0.00  0.00     0.000 C
ATOM      6  O5  IDU A1623      63.961  37.439  37.7820  0.00  0.00     0.000 O
ATOM      7   O  IDU A1623      64.474  39.186  39.8230  0.00  0.00     0.000 O
ATOM      8   S  IDU A1623      64.541  40.027  41.3430  0.00  0.00     0.000 S
ATOM      9   O  IDU A1623      65.720  39.568  42.0130  0.00  0.00     0.000 OA
ATOM     10   O  IDU A1623      63.377  39.713  42.1570  0.00  0.00     0.000 OA
ATOM     11   O  IDU A1623      64.517  41.421  41.1380  0.00  0.00     0.000 OA
ATOM     12   O  IDU A1623      61.065  39.059  38.6000  0.00  0.00     0.000 O
ATOM     14  HD  IDU A1623      61.560  38.418  38.9070  0.00  0.00     0.000 HD
ATOM     14   C  IDU A1623      63.024  35.269  38.4530  0.00  0.00     0.000 C
ATOM     15   O  IDU A1623      62.087  34.553  38.8590  0.00  0.00     0.000 OA
ATOM     16   O  IDU A1623      64.161  34.837  38.1840  0.00  0.00     0.000 OA
ENDROOT
BRANCH 1 17
ATOM     17  O4  SGN A5702      64.870  39.526  36.9980  0.00  0.00     0.000 O
BRANCH 17 21
ATOM     18  C1  SGN A5702      67.190  40.011  33.5280  0.00  0.00     0.000 C
ATOM     19  C2  SGN A5702      65.685  40.158  33.3900  0.00  0.00     0.000 C
ATOM     20  C3  SGN A5702      65.075  40.530  34.7120  0.00  0.00     0.000 C
ATOM     21  C4  SGN A5702      65.381  39.322  35.6480  0.00  0.00     0.000 C
ATOM     22  C5  SGN A5702      66.915  39.217  35.7880  0.00  0.00     0.000 C
ATOM     23  O5  SGN A5702      67.474  39.011  34.5100  0.00  0.00     0.000 O
ATOM     24   O  SGN A5702      67.828  41.217  33.8540  0.00  0.00     0.000 OA
ATOM     25   N  SGN A5702      65.438  41.173  32.4260  0.00  0.00     0.000 N
ATOM     27  HD  SGN A5702      64.827  40.597  32.2130  0.00  0.00     0.000 HD
ATOM     27   S  SGN A5702      65.008  40.502  30.8490  0.00  0.00     0.000 S
ATOM     28   O  SGN A5702      65.992  39.507  30.4900  0.00  0.00     0.000 OA
ATOM     29   O  SGN A5702      65.080  41.546  29.8750  0.00  0.00     0.000 OA
ATOM     30   O  SGN A5702      63.668  39.976  31.0170  0.00  0.00     0.000 OA
ATOM     31   O  SGN A5702      63.684  40.660  34.5470  0.00  0.00     0.000 O
ATOM     33  HD  SGN A5702      63.073  40.085  34.3340  0.00  0.00     0.000 HD
ATOM     33   C  SGN A5702      67.327  38.060  36.6480  0.00  0.00     0.000 C
ATOM     34   O  SGN A5702      67.233  38.586  37.9580  0.00  0.00     0.000 O
ATOM     35   S  SGN A5702      68.338  38.008  39.1580  0.00  0.00     0.000 S
ATOM     36   O  SGN A5702      68.519  38.960  40.2030  0.00  0.00     0.000 OA
ATOM     37   O  SGN A5702      69.601  37.748  38.5250  0.00  0.00     0.000 OA
ATOM     38   O  SGN A5702      67.727  36.826  39.6970  0.00  0.00     0.000 OA
ENDBRANCH 17 21
ENDBRANCH 1 17
TORSDOF 2
ENDMDL
MODEL 16
REMARK VINA RESULT:      -3.3      2.961      8.226
ROOT
ATOM      1  C1  IDU A1623      63.700  39.164  38.7540  0.00  0.00     0.000 C
ATOM      2  C2  IDU A1623      63.684  39.138  40.2900  0.00  0.00     0.000 C
ATOM      3  C3  IDU A1623      62.453  38.372  40.7970  0.00  0.00     0.000 C
ATOM      4  C4  IDU A1623      62.540  36.935  40.2610  0.00  0.00     0.000 C
ATOM      5  C5  IDU A1623      62.610  36.955  38.7180  0.00  0.00     0.000 C
ATOM      6  O5  IDU A1623      63.773  37.765  38.3100  0.00  0.00     0.000 O
ATOM      7   O  IDU A1623      64.854  38.488  40.7160  0.00  0.00     0.000 O
ATOM      8   S  IDU A1623      65.298  38.617  42.3910  0.00  0.00     0.000 S
ATOM      9   O  IDU A1623      66.521  37.888  42.5480  0.00  0.00     0.000 OA
ATOM     10   O  IDU A1623      64.277  38.023  43.2420  0.00  0.00     0.000 OA
ATOM     11   O  IDU A1623      65.395  39.969  42.7750  0.00  0.00     0.000 OA
ATOM     12   O  IDU A1623      61.284  38.974  40.3160  0.00  0.00     0.000 O
ATOM     14  HD  IDU A1623      61.752  38.251  40.2250  0.00  0.00     0.000 HD
ATOM     14   C  IDU A1623      62.735  35.540  38.2380  0.00  0.00     0.000 C
ATOM     15   O  IDU A1623      61.815  34.745  38.5150  0.00  0.00     0.000 OA
ATOM     16   O  IDU A1623      63.745  35.229  37.5790  0.00  0.00     0.000 OA
ENDROOT
BRANCH 1 17
ATOM     17  O4  SGN A5702      64.753  39.964  38.2540  0.00  0.00     0.000 O
BRANCH 17 21
ATOM     18  C1  SGN A5702      66.178  42.208  34.9990  0.00  0.00     0.000 C
ATOM     19  C2  SGN A5702      64.787  42.530  35.5160  0.00  0.00     0.000 C
ATOM     20  C3  SGN A5702      64.652  42.101  36.9500  0.00  0.00     0.000 C
ATOM     21  C4  SGN A5702      64.835  40.553  36.9220  0.00  0.00     0.000 C
ATOM     22  C5  SGN A5702      66.265  40.261  36.4190  0.00  0.00     0.000 C
ATOM     23  O5  SGN A5702      66.410  40.802  35.1250  0.00  0.00     0.000 O
ATOM     24   O  SGN A5702      67.184  42.934  35.6540  0.00  0.00     0.000 OA
ATOM     25   N  SGN A5702      64.598  43.934  35.3980  0.00  0.00     0.000 N
ATOM     27  HD  SGN A5702      63.819  43.646  35.1530  0.00  0.00     0.000 HD
ATOM     27   S  SGN A5702      63.622  44.358  33.9880  0.00  0.00     0.000 S
ATOM     28   O  SGN A5702      64.172  43.689  32.8320  0.00  0.00     0.000 OA
ATOM     29   O  SGN A5702      63.735  45.765  33.7620  0.00  0.00     0.000 OA
ATOM     30   O  SGN A5702      62.274  43.945  34.3260  0.00  0.00     0.000 OA
ATOM     31   O  SGN A5702      63.356  42.415  37.3950  0.00  0.00     0.000 O
ATOM     33  HD  SGN A5702      62.576  42.128  37.1500  0.00  0.00     0.000 HD
ATOM     33   C  SGN A5702      66.543  38.791  36.3220  0.00  0.00     0.000 C
ATOM     34   O  SGN A5702      66.926  38.450  37.6410  0.00  0.00     0.000 O
ATOM     35   S  SGN A5702      68.090  37.189  37.8590  0.00  0.00     0.000 S
ATOM     36   O  SGN A5702      68.781  37.325  39.0990  0.00  0.00     0.000 OA
ATOM     37   O  SGN A5702      69.034  37.250  36.7780  0.00  0.00     0.000 OA
ATOM     38   O  SGN A5702      67.330  35.971  37.8730  0.00  0.00     0.000 OA
ENDBRANCH 17 21
ENDBRANCH 1 17
TORSDOF 2
ENDMDL
MODEL 17
REMARK VINA RESULT:      -3.1      3.615      8.659
ROOT
ATOM      1  C1  IDU A1623      64.825  37.180  37.7100  0.00  0.00     0.000 C
ATOM      2  C2  IDU A1623      64.662  35.786  38.3370  0.00  0.00     0.000 C
ATOM      3  C3  IDU A1623      65.024  34.697  37.3160  0.00  0.00     0.000 C
ATOM      4  C4  IDU A1623      66.490  34.906  36.9060  0.00  0.00     0.000 C
ATOM      5  C5  IDU A1623      66.673  36.326  36.3240  0.00  0.00     0.000 C
ATOM      6  O5  IDU A1623      66.240  37.309  37.3340  0.00  0.00     0.000 O
ATOM      7   O  IDU A1623      65.532  35.711  39.4370  0.00  0.00     0.000 O
ATOM      8   S  IDU A1623      65.320  34.401  40.5590  0.00  0.00     0.000 S
ATOM      9   O  IDU A1623      66.310  34.571  41.5790  0.00  0.00     0.000 OA
ATOM     10   O  IDU A1623      65.528  33.119  39.9010  0.00  0.00     0.000 OA
ATOM     11   O  IDU A1623      64.000  34.381  41.0540  0.00  0.00     0.000 OA
ATOM     12   O  IDU A1623      64.207  34.812  36.1850  0.00  0.00     0.000 O
ATOM     14  HD  IDU A1623      65.031  34.919  36.4300  0.00  0.00     0.000 HD
ATOM     14   C  IDU A1623      68.121  36.503  35.9750  0.00  0.00     0.000 C
ATOM     15   O  IDU A1623      68.617  35.734  35.1280  0.00  0.00     0.000 OA
ATOM     16   O  IDU A1623      68.755  37.415  36.5390  0.00  0.00     0.000 OA
ENDROOT
BRANCH 1 17
ATOM     17  O4  SGN A5702      64.384  38.201  38.5820  0.00  0.00     0.000 O
BRANCH 17 21
ATOM     18  C1  SGN A5702      63.554  42.301  38.9820  0.00  0.00     0.000 C
ATOM     19  C2  SGN A5702      63.055  41.605  37.7270  0.00  0.00     0.000 C
ATOM     20  C3  SGN A5702      62.905  40.130  37.9750  0.00  0.00     0.000 C
ATOM     21  C4  SGN A5702      64.347  39.630  38.2920  0.00  0.00     0.000 C
ATOM     22  C5  SGN A5702      64.812  40.335  39.5850  0.00  0.00     0.000 C
ATOM     23  O5  SGN A5702      64.805  41.728  39.3680  0.00  0.00     0.000 O
ATOM     24   O  SGN A5702      62.635  42.239  40.0400  0.00  0.00     0.000 OA
ATOM     25   N  SGN A5702      61.802  42.181  37.3840  0.00  0.00     0.000 N
ATOM     27  HD  SGN A5702      62.159  42.096  36.6000  0.00  0.00     0.000 HD
ATOM     27   S  SGN A5702      61.944  43.350  36.0670  0.00  0.00     0.000 S
ATOM     28   O  SGN A5702      63.005  44.276  36.3900  0.00  0.00     0.000 OA
ATOM     29   O  SGN A5702      60.730  44.100  35.9910  0.00  0.00     0.000 OA
ATOM     30   O  SGN A5702      62.195  42.553  34.8830  0.00  0.00     0.000 OA
ATOM     31   O  SGN A5702      62.441  39.519  36.7970  0.00  0.00     0.000 O
ATOM     33  HD  SGN A5702      62.799  39.434  36.0120  0.00  0.00     0.000 HD
ATOM     33   C  SGN A5702      66.209  39.950  39.9690  0.00  0.00     0.000 C
ATOM     34   O  SGN A5702      66.023  38.742  40.6830  0.00  0.00     0.000 O
ATOM     35   S  SGN A5702      67.109  38.377  41.9790  0.00  0.00     0.000 S
ATOM     36   O  SGN A5702      66.512  37.495  42.9270  0.00  0.00     0.000 OA
ATOM     37   O  SGN A5702      67.467  39.606  42.6320  0.00  0.00     0.000 OA
ATOM     38   O  SGN A5702      68.228  37.723  41.3630  0.00  0.00     0.000 OA
ENDBRANCH 17 21
ENDBRANCH 1 17
TORSDOF 2
ENDMDL
MODEL 18
REMARK VINA RESULT:      -3.1      2.896      8.569
ROOT
ATOM      1  C1  IDU A1623      64.235  38.458  38.2120  0.00  0.00     0.000 C
ATOM      2  C2  IDU A1623      63.742  37.657  39.4270  0.00  0.00     0.000 C
ATOM      3  C3  IDU A1623      63.641  36.166  39.0770  0.00  0.00     0.000 C
ATOM      4  C4  IDU A1623      65.043  35.681  38.6770  0.00  0.00     0.000 C
ATOM      5  C5  IDU A1623      65.567  36.517  37.4890  0.00  0.00     0.000 C
ATOM      6  O5  IDU A1623      65.569  37.939  37.8780  0.00  0.00     0.000 O
ATOM      7   O  IDU A1623      64.676  37.838  40.4610  0.00  0.00     0.000 O
ATOM      8   S  IDU A1623      64.221  37.354  42.0680  0.00  0.00     0.000 S
ATOM      9   O  IDU A1623      65.333  37.660  42.9170  0.00  0.00     0.000 OA
ATOM     10   O  IDU A1623      63.961  35.923  42.1210  0.00  0.00     0.000 OA
ATOM     11   O  IDU A1623      63.024  37.989  42.4560  0.00  0.00     0.000 OA
ATOM     12   O  IDU A1623      62.766  35.987  37.9990  0.00  0.00     0.000 O
ATOM     14  HD  IDU A1623      63.607  35.929  38.1950  0.00  0.00     0.000 HD
ATOM     14   C  IDU A1623      66.950  36.040  37.1570  0.00  0.00     0.000 C
ATOM     15   O  IDU A1623      67.091  34.851  36.8100  0.00  0.00     0.000 OA
ATOM     16   O  IDU A1623      67.888  36.856  37.2350  0.00  0.00     0.000 OA
ENDROOT
BRANCH 1 17
ATOM     17  O4  SGN A5702      64.224  39.850  38.4620  0.00  0.00     0.000 O
BRANCH 17 21
ATOM     18  C1  SGN A5702      64.797  43.663  36.7910  0.00  0.00     0.000 C
ATOM     19  C2  SGN A5702      64.100  42.621  35.9340  0.00  0.00     0.000 C
ATOM     20  C3  SGN A5702      63.469  41.570  36.8040  0.00  0.00     0.000 C
ATOM     21  C4  SGN A5702      64.663  40.897  37.5460  0.00  0.00     0.000 C
ATOM     22  C5  SGN A5702      65.332  41.974  38.4260  0.00  0.00     0.000 C
ATOM     23  O5  SGN A5702      65.788  43.019  37.5970  0.00  0.00     0.000 O
ATOM     24   O  SGN A5702      63.907  44.392  37.5940  0.00  0.00     0.000 OA
ATOM     25   N  SGN A5702      63.108  43.289  35.1650  0.00  0.00     0.000 N
ATOM     27  HD  SGN A5702      63.419  42.734  34.5780  0.00  0.00     0.000 HD
ATOM     27   S  SGN A5702      63.633  43.569  33.5020  0.00  0.00     0.000 S
ATOM     28   O  SGN A5702      64.940  44.185  33.5310  0.00  0.00     0.000 OA
ATOM     29   O  SGN A5702      62.736  44.500  32.8910  0.00  0.00     0.000 OA
ATOM     30   O  SGN A5702      63.609  42.263  32.8750  0.00  0.00     0.000 OA
ATOM     31   O  SGN A5702      62.832  40.625  35.9800  0.00  0.00     0.000 O
ATOM     33  HD  SGN A5702      63.143  40.069  35.3920  0.00  0.00     0.000 HD
ATOM     33   C  SGN A5702      66.522  41.442  39.1680  0.00  0.00     0.000 C
ATOM     34   O  SGN A5702      65.944  40.848  40.3150  0.00  0.00     0.000 O
ATOM     35   S  SGN A5702      66.845  40.867  41.7920  0.00  0.00     0.000 S
ATOM     36   O  SGN A5702      65.988  40.774  42.9280  0.00  0.00     0.000 OA
ATOM     37   O  SGN A5702      67.588  42.095  41.8560  0.00  0.00     0.000 OA
ATOM     38   O  SGN A5702      67.685  39.705  41.7380  0.00  0.00     0.000 OA
ENDBRANCH 17 21
ENDBRANCH 1 17
TORSDOF 2
ENDMDL
MODEL 19
REMARK VINA RESULT:      -2.6      2.492      3.411
ROOT
ATOM      1  C1  IDU A1623      64.440  43.100  35.3140  0.00  0.00     0.000 C
ATOM      2  C2  IDU A1623      64.260  42.715  33.8370  0.00  0.00     0.000 C
ATOM      3  C3  IDU A1623      64.341  43.963  32.9470  0.00  0.00     0.000 C
ATOM      4  C4  IDU A1623      65.727  44.594  33.1470  0.00  0.00     0.000 C
ATOM      5  C5  IDU A1623      65.937  44.936  34.6390  0.00  0.00     0.000 C
ATOM      6  O5  IDU A1623      65.775  43.703  35.4320  0.00  0.00     0.000 O
ATOM      7   O  IDU A1623      65.296  41.827  33.5010  0.00  0.00     0.000 O
ATOM      8   S  IDU A1623      65.161  40.938  32.0130  0.00  0.00     0.000 S
ATOM      9   O  IDU A1623      66.323  40.107  31.9260  0.00  0.00     0.000 OA
ATOM     10   O  IDU A1623      65.135  41.843  30.8730  0.00  0.00     0.000 OA
ATOM     11   O  IDU A1623      63.950  40.219  31.9740  0.00  0.00     0.000 OA
ATOM     12   O  IDU A1623      63.356  44.884  33.3250  0.00  0.00     0.000 O
ATOM     14  HD  IDU A1623      64.216  44.781  33.3350  0.00  0.00     0.000 HD
ATOM     14   C  IDU A1623      67.314  45.510  34.7970  0.00  0.00     0.000 C
ATOM     15   O  IDU A1623      67.585  46.558  34.1780  0.00  0.00     0.000 OA
ATOM     16   O  IDU A1623      68.115  44.919  35.5450  0.00  0.00     0.000 OA
ENDROOT
BRANCH 1 17
ATOM     17  O4  SGN A5702      64.251  41.992  36.1710  0.00  0.00     0.000 O
BRANCH 17 21
ATOM     18  C1  SGN A5702      63.965  40.737  40.1720  0.00  0.00     0.000 C
ATOM     19  C2  SGN A5702      63.346  42.076  39.8120  0.00  0.00     0.000 C
ATOM     20  C3  SGN A5702      63.015  42.120  38.3470  0.00  0.00     0.000 C
ATOM     21  C4  SGN A5702      64.389  41.988  37.6230  0.00  0.00     0.000 C
ATOM     22  C5  SGN A5702      64.978  40.608  37.9880  0.00  0.00     0.000 C
ATOM     23  O5  SGN A5702      65.144  40.541  39.3860  0.00  0.00     0.000 O
ATOM     24   O  SGN A5702      63.077  39.664  40.0040  0.00  0.00     0.000 OA
ATOM     25   N  SGN A5702      62.167  42.229  40.5920  0.00  0.00     0.000 N
ATOM     27  HD  SGN A5702      62.487  43.032  40.6280  0.00  0.00     0.000 HD
ATOM     27   S  SGN A5702      62.420  43.291  41.9800  0.00  0.00     0.000 S
ATOM     28   O  SGN A5702      63.599  42.848  42.6870  0.00  0.00     0.000 OA
ATOM     29   O  SGN A5702      61.310  43.150  42.8700  0.00  0.00     0.000 OA
ATOM     30   O  SGN A5702      62.532  44.623  41.4200  0.00  0.00     0.000 OA
ATOM     31   O  SGN A5702      62.442  43.370  38.0500  0.00  0.00     0.000 O
ATOM     33  HD  SGN A5702      62.763  44.174  38.0860  0.00  0.00     0.000 HD
ATOM     33   C  SGN A5702      66.324  40.385  37.3670  0.00  0.00     0.000 C
ATOM     34   O  SGN A5702      66.005  39.918  36.0700  0.00  0.00     0.000 O
ATOM     35   S  SGN A5702      67.072  38.781  35.3200  0.00  0.00     0.000 S
ATOM     36   O  SGN A5702      66.395  37.998  34.3400  0.00  0.00     0.000 OA
ATOM     37   O  SGN A5702      67.604  37.917  36.3360  0.00  0.00     0.000 OA
ATOM     38   O  SGN A5702      68.080  39.576  34.6760  0.00  0.00     0.000 OA
ENDBRANCH 17 21
ENDBRANCH 1 17
TORSDOF 2
ENDMDL
MODEL 20
REMARK VINA RESULT:      -2.5      3.311      8.455
ROOT
ATOM      1  C1  IDU A1623      63.902  37.932  38.9860  0.00  0.00     0.000 C
ATOM      2  C2  IDU A1623      63.375  37.413  40.3330  0.00  0.00     0.000 C
ATOM      3  C3  IDU A1623      62.782  36.006  40.1670  0.00  0.00     0.000 C
ATOM      4  C4  IDU A1623      63.901  35.081  39.6630  0.00  0.00     0.000 C
ATOM      5  C5  IDU A1623      64.472  35.626  38.3350  0.00  0.00     0.000 C
ATOM      6  O5  IDU A1623      64.956  37.001  38.5590  0.00  0.00     0.000 O
ATOM      7   O  IDU A1623      64.460  37.366  41.2240  0.00  0.00     0.000 O
ATOM      8   S  IDU A1623      64.121  37.164  42.9170  0.00  0.00     0.000 S
ATOM      9   O  IDU A1623      65.384  37.168  43.5910  0.00  0.00     0.000 OA
ATOM     10   O  IDU A1623      63.455  35.893  43.1600  0.00  0.00     0.000 OA
ATOM     11   O  IDU A1623      63.238  38.166  43.3680  0.00  0.00     0.000 OA
ATOM     12   O  IDU A1623      61.746  36.033  39.2250  0.00  0.00     0.000 O
ATOM     14  HD  IDU A1623      62.551  35.730  39.3280  0.00  0.00     0.000 HD
ATOM     14   C  IDU A1623      65.585  34.720  37.9000  0.00  0.00     0.000 C
ATOM     15   O  IDU A1623      65.312  33.524  37.6740  0.00  0.00     0.000 OA
ATOM     16   O  IDU A1623      66.725  35.206  37.7750  0.00  0.00     0.000 OA
ENDROOT
BRANCH 1 17
ATOM     17  O4  SGN A5702      64.344  39.271  39.0780  0.00  0.00     0.000 O
BRANCH 17 21
ATOM     18  C1  SGN A5702      63.886  43.118  37.4480  0.00  0.00     0.000 C
ATOM     19  C2  SGN A5702      62.708  42.164  37.3350  0.00  0.00     0.000 C
ATOM     20  C3  SGN A5702      62.785  41.114  38.4080  0.00  0.00     0.000 C
ATOM     21  C4  SGN A5702      64.099  40.332  38.1070  0.00  0.00     0.000 C
ATOM     22  C5  SGN A5702      65.275  41.321  38.2560  0.00  0.00     0.000 C
ATOM     23  O5  SGN A5702      65.101  42.374  37.3350  0.00  0.00     0.000 O
ATOM     24   O  SGN A5702      63.872  43.862  38.6370  0.00  0.00     0.000 OA
ATOM     25   N  SGN A5702      61.519  42.931  37.4750  0.00  0.00     0.000 N
ATOM     27  HD  SGN A5702      61.286  42.386  36.8430  0.00  0.00     0.000 HD
ATOM     27   S  SGN A5702      60.752  43.258  35.9180  0.00  0.00     0.000 S
ATOM     28   O  SGN A5702      61.749  43.788  35.0180  0.00  0.00     0.000 OA
ATOM     29   O  SGN A5702      59.761  44.272  36.1020  0.00  0.00     0.000 OA
ATOM     30   O  SGN A5702      60.192  41.988  35.5000  0.00  0.00     0.000 OA
ATOM     31   O  SGN A5702      61.681  40.253  38.2750  0.00  0.00     0.000 O
ATOM     33  HD  SGN A5702      61.448  39.708  37.6430  0.00  0.00     0.000 HD
ATOM     33   C  SGN A5702      66.597  40.679  37.9570  0.00  0.00     0.000 C
ATOM     34   O  SGN A5702      66.941  40.068  39.1850  0.00  0.00     0.000 O
ATOM     35   S  SGN A5702      68.615  39.958  39.6080  0.00  0.00     0.000 S
ATOM     36   O  SGN A5702      68.792  39.864  41.0200  0.00  0.00     0.000 OA
ATOM     37   O  SGN A5702      69.285  41.132  39.1210  0.00  0.00     0.000 OA
ATOM     38   O  SGN A5702      69.083  38.749  38.9920  0.00  0.00     0.000 OA
ENDBRANCH 17 21
ENDBRANCH 1 17
TORSDOF 2
ENDMDL
MODEL 21
REMARK VINA RESULT:      -2.5      3.657      7.737
ROOT
ATOM      1  C1  IDU A1623      64.958  39.376  38.2890  0.00  0.00     0.000 C
ATOM      2  C2  IDU A1623      65.384  38.057  38.9530  0.00  0.00     0.000 C
ATOM      3  C3  IDU A1623      65.070  36.871  38.0300  0.00  0.00     0.000 C
ATOM      4  C4  IDU A1623      65.861  37.067  36.7270  0.00  0.00     0.000 C
ATOM      5  C5  IDU A1623      65.478  38.417  36.0810  0.00  0.00     0.000 C
ATOM      6  O5  IDU A1623      65.741  39.496  37.0510  0.00  0.00     0.000 O
ATOM      7   O  IDU A1623      66.767  38.124  39.1830  0.00  0.00     0.000 O
ATOM      8   S  IDU A1623      67.480  36.942  40.2390  0.00  0.00     0.000 S
ATOM      9   O  IDU A1623      68.877  37.247  40.3120  0.00  0.00     0.000 OA
ATOM     10   O  IDU A1623      67.312  35.601  39.6990  0.00  0.00     0.000 OA
ATOM     11   O  IDU A1623      66.836  36.946  41.4930  0.00  0.00     0.000 OA
ATOM     12   O  IDU A1623      63.701  36.841  37.7380  0.00  0.00     0.000 O
ATOM     14  HD  IDU A1623      64.464  36.993  37.3580  0.00  0.00     0.000 HD
ATOM     14   C  IDU A1623      66.299  38.589  34.8370  0.00  0.00     0.000 C
ATOM     15   O  IDU A1623      66.171  37.742  33.9310  0.00  0.00     0.000 OA
ATOM     16   O  IDU A1623      67.060  39.572  34.7660  0.00  0.00     0.000 OA
ENDROOT
BRANCH 1 17
ATOM     17  O4  SGN A5702      65.121  40.477  39.1610  0.00  0.00     0.000 O
BRANCH 17 21
ATOM     18  C1  SGN A5702      64.379  44.575  39.7280  0.00  0.00     0.000 C
ATOM     19  C2  SGN A5702      63.276  43.745  39.0940  0.00  0.00     0.000 C
ATOM     20  C3  SGN A5702      63.429  42.299  39.4740  0.00  0.00     0.000 C
ATOM     21  C4  SGN A5702      64.799  41.869  38.8660  0.00  0.00     0.000 C
ATOM     22  C5  SGN A5702      65.898  42.711  39.5490  0.00  0.00     0.000 C
ATOM     23  O5  SGN A5702      65.647  44.075  39.2960  0.00  0.00     0.000 O
ATOM     24   O  SGN A5702      64.308  44.595  41.1290  0.00  0.00     0.000 OA
ATOM     25   N  SGN A5702      62.033  44.252  39.5610  0.00  0.00     0.000 N
ATOM     27  HD  SGN A5702      61.842  44.098  38.7300  0.00  0.00     0.000 HD
ATOM     27   S  SGN A5702      61.245  45.287  38.3650  0.00  0.00     0.000 S
ATOM     28   O  SGN A5702      62.202  46.267  37.9070  0.00  0.00     0.000 OA
ATOM     29   O  SGN A5702      60.181  45.995  39.0060  0.00  0.00     0.000 OA
ATOM     30   O  SGN A5702      60.783  44.383  37.3310  0.00  0.00     0.000 OA
ATOM     31   O  SGN A5702      62.393  41.562  38.8730  0.00  0.00     0.000 O
ATOM     33  HD  SGN A5702      62.202  41.408  38.0420  0.00  0.00     0.000 HD
ATOM     33   C  SGN A5702      67.263  42.401  39.0150  0.00  0.00     0.000 C
ATOM     34   O  SGN A5702      67.651  41.266  39.7660  0.00  0.00     0.000 O
ATOM     35   S  SGN A5702      69.328  41.059  40.1380  0.00  0.00     0.000 S
ATOM     36   O  SGN A5702      69.510  40.261  41.3050  0.00  0.00     0.000 OA
ATOM     37   O  SGN A5702      69.909  42.355  40.3520  0.00  0.00     0.000 OA
ATOM     38   O  SGN A5702      69.885  40.375  39.0060  0.00  0.00     0.000 OA
ENDBRANCH 17 21
ENDBRANCH 1 17
TORSDOF 2
ENDMDL
MODEL 22
REMARK VINA RESULT:      -2.2      4.071      9.252
ROOT
ATOM      1  C1  IDU A1623      63.992  37.853  39.5010  0.00  0.00     0.000 C
ATOM      2  C2  IDU A1623      63.064  36.846  40.1980  0.00  0.00     0.000 C
ATOM      3  C3  IDU A1623      62.224  36.088  39.1610  0.00  0.00     0.000 C
ATOM      4  C4  IDU A1623      63.190  35.336  38.2320  0.00  0.00     0.000 C
ATOM      5  C5  IDU A1623      64.162  36.337  37.5670  0.00  0.00     0.000 C
ATOM      6  O5  IDU A1623      64.878  37.072  38.6250  0.00  0.00     0.000 O
ATOM      7   O  IDU A1623      63.874  35.940  40.9030  0.00  0.00     0.000 O
ATOM      8   S  IDU A1623      63.116  34.906  42.0760  0.00  0.00     0.000 S
ATOM      9   O  IDU A1623      64.156  34.107  42.6520  0.00  0.00     0.000 OA
ATOM     10   O  IDU A1623      62.142  34.032  41.4390  0.00  0.00     0.000 OA
ATOM     11   O  IDU A1623      62.403  35.669  43.0220  0.00  0.00     0.000 OA
ATOM     12   O  IDU A1623      61.468  36.992  38.4050  0.00  0.00     0.000 O
ATOM     14  HD  IDU A1623      62.137  36.449  38.3260  0.00  0.00     0.000 HD
ATOM     14   C  IDU A1623      65.111  35.561  36.7020  0.00  0.00     0.000 C
ATOM     15   O  IDU A1623      64.634  34.892  35.7640  0.00  0.00     0.000 OA
ATOM     16   O  IDU A1623      66.328  35.629  36.9570  0.00  0.00     0.000 OA
ENDROOT
BRANCH 1 17
ATOM     17  O4  SGN A5702      64.692  38.653  40.4320  0.00  0.00     0.000 O
BRANCH 17 21
ATOM     18  C1  SGN A5702      67.241  41.960  40.9110  0.00  0.00     0.000 C
ATOM     19  C2  SGN A5702      66.163  42.054  39.8440  0.00  0.00     0.000 C
ATOM     20  C3  SGN A5702      65.030  41.121  40.1650  0.00  0.00     0.000 C
ATOM     21  C4  SGN A5702      65.662  39.696  40.1200  0.00  0.00     0.000 C
ATOM     22  C5  SGN A5702      66.732  39.625  41.2310  0.00  0.00     0.000 C
ATOM     23  O5  SGN A5702      67.709  40.611  40.9840  0.00  0.00     0.000 O
ATOM     24   O  SGN A5702      66.801  42.398  42.1690  0.00  0.00     0.000 OA
ATOM     25   N  SGN A5702      65.705  43.400  39.8130  0.00  0.00     0.000 N
ATOM     27  HD  SGN A5702      65.724  43.217  38.9670  0.00  0.00     0.000 HD
ATOM     27   S  SGN A5702      66.403  44.310  38.4700  0.00  0.00     0.000 S
ATOM     28   O  SGN A5702      67.835  44.125  38.4870  0.00  0.00     0.000 OA
ATOM     29   O  SGN A5702      66.149  45.701  38.6820  0.00  0.00     0.000 OA
ATOM     30   O  SGN A5702      65.753  43.790  37.2840  0.00  0.00     0.000 OA
ATOM     31   O  SGN A5702      64.053  41.236  39.1600  0.00  0.00     0.000 O
ATOM     33  HD  SGN A5702      64.072  41.054  38.3140  0.00  0.00     0.000 HD
ATOM     33   C  SGN A5702      67.431  38.300  41.2600  0.00  0.00     0.000 C
ATOM     34   O  SGN A5702      66.560  37.495  42.0330  0.00  0.00     0.000 O
ATOM     35   S  SGN A5702      67.248  36.253  43.0220  0.00  0.00     0.000 S
ATOM     36   O  SGN A5702      66.395  35.923  44.1150  0.00  0.00     0.000 OA
ATOM     37   O  SGN A5702      68.509  36.721  43.5260  0.00  0.00     0.000 OA
ATOM     38   O  SGN A5702      67.377  35.112  42.1610  0.00  0.00     0.000 OA
ENDBRANCH 17 21
ENDBRANCH 1 17
TORSDOF 2
ENDMDL
MODEL 23
REMARK VINA RESULT:      -2.0      3.370      7.390
ROOT
ATOM      1  C1  IDU A1623      64.856  44.380  39.7970  0.00  0.00     0.000 C
ATOM      2  C2  IDU A1623      66.236  44.495  40.4620  0.00  0.00     0.000 C
ATOM      3  C3  IDU A1623      66.263  45.686  41.4310  0.00  0.00     0.000 C
ATOM      4  C4  IDU A1623      65.194  45.441  42.5070  0.00  0.00     0.000 C
ATOM      5  C5  IDU A1623      63.810  45.271  41.8410  0.00  0.00     0.000 C
ATOM      6  O5  IDU A1623      63.885  44.157  40.8770  0.00  0.00     0.000 O
ATOM      7   O  IDU A1623      66.466  43.305  41.1710  0.00  0.00     0.000 O
ATOM      8   S  IDU A1623      68.081  42.985  41.7300  0.00  0.00     0.000 S
ATOM      9   O  IDU A1623      68.041  41.717  42.3950  0.00  0.00     0.000 OA
ATOM     10   O  IDU A1623      68.510  44.005  42.6750  0.00  0.00     0.000 OA
ATOM     11   O  IDU A1623      68.995  43.029  40.6580  0.00  0.00     0.000 OA
ATOM     12   O  IDU A1623      65.962  46.868  40.7430  0.00  0.00     0.000 O
ATOM     14  HD  IDU A1623      65.627  46.335  41.3380  0.00  0.00     0.000 HD
ATOM     14   C  IDU A1623      62.805  44.993  42.9190  0.00  0.00     0.000 C
ATOM     15   O  IDU A1623      62.641  45.858  43.8020  0.00  0.00     0.000 OA
ATOM     16   O  IDU A1623      62.176  43.919  42.8750  0.00  0.00     0.000 OA
ENDROOT
BRANCH 1 17
ATOM     17  O4  SGN A5702      64.833  43.369  38.8090  0.00  0.00     0.000 O
BRANCH 17 21
ATOM     18  C1  SGN A5702      63.519  42.307  34.9610  0.00  0.00     0.000 C
ATOM     19  C2  SGN A5702      64.130  43.687  35.1370  0.00  0.00     0.000 C
ATOM     20  C3  SGN A5702      65.037  43.705  36.3350  0.00  0.00     0.000 C
ATOM     21  C4  SGN A5702      64.103  43.408  37.5470  0.00  0.00     0.000 C
ATOM     22  C5  SGN A5702      63.521  41.992  37.3510  0.00  0.00     0.000 C
ATOM     23  O5  SGN A5702      62.793  41.963  36.1440  0.00  0.00     0.000 O
ATOM     24   O  SGN A5702      64.474  41.323  34.6650  0.00  0.00     0.000 OA
ATOM     25   N  SGN A5702      64.862  43.987  33.9560  0.00  0.00     0.000 N
ATOM     27  HD  SGN A5702      64.496  44.755  34.1180  0.00  0.00     0.000 HD
ATOM     27   S  SGN A5702      63.975  45.073  32.8810  0.00  0.00     0.000 S
ATOM     28   O  SGN A5702      62.645  44.542  32.6900  0.00  0.00     0.000 OA
ATOM     29   O  SGN A5702      64.620  45.079  31.6050  0.00  0.00     0.000 OA
ATOM     30   O  SGN A5702      64.007  46.363  33.5390  0.00  0.00     0.000 OA
ATOM     31   O  SGN A5702      65.586  44.994  36.4660  0.00  0.00     0.000 O
ATOM     33  HD  SGN A5702      65.220  45.762  36.6280  0.00  0.00     0.000 HD
ATOM     33   C  SGN A5702      62.577  41.611  38.4520  0.00  0.00     0.000 C
ATOM     34   O  SGN A5702      63.441  41.127  39.4620  0.00  0.00     0.000 O
ATOM     35   S  SGN A5702      62.872  39.860  40.4940  0.00  0.00     0.000 S
ATOM     36   O  SGN A5702      63.952  39.111  41.0450  0.00  0.00     0.000 OA
ATOM     37   O  SGN A5702      62.031  38.988  39.7230  0.00  0.00     0.000 OA
ATOM     38   O  SGN A5702      62.168  40.524  41.5550  0.00  0.00     0.000 OA
ENDBRANCH 17 21
ENDBRANCH 1 17
TORSDOF 2
ENDMDL
MODEL 24
REMARK VINA RESULT:      -1.7      3.548      7.282
ROOT
ATOM      1  C1  IDU A1623      64.081  44.167  39.4180  0.00  0.00     0.000 C
ATOM      2  C2  IDU A1623      64.760  45.241  40.2820  0.00  0.00     0.000 C
ATOM      3  C3  IDU A1623      63.708  46.044  41.0600  0.00  0.00     0.000 C
ATOM      4  C4  IDU A1623      62.945  45.064  41.9660  0.00  0.00     0.000 C
ATOM      5  C5  IDU A1623      62.303  43.951  41.1090  0.00  0.00     0.000 C
ATOM      6  O5  IDU A1623      63.365  43.275  40.3410  0.00  0.00     0.000 O
ATOM      7   O  IDU A1623      65.614  44.583  41.1830  0.00  0.00     0.000 O
ATOM      8   S  IDU A1623      66.785  45.536  42.0450  0.00  0.00     0.000 S
ATOM      9   O  IDU A1623      67.525  44.629  42.8690  0.00  0.00     0.000 OA
ATOM     10   O  IDU A1623      66.125  46.519  42.8920  0.00  0.00     0.000 OA
ATOM     11   O  IDU A1623      67.589  46.265  41.1460  0.00  0.00     0.000 OA
ATOM     12   O  IDU A1623      62.810  46.644  40.1700  0.00  0.00     0.000 O
ATOM     14  HD  IDU A1623      62.842  46.020  40.7700  0.00  0.00     0.000 HD
ATOM     14   C  IDU A1623      61.604  42.996  42.0310  0.00  0.00     0.000 C
ATOM     15   O  IDU A1623      60.680  43.440  42.7410  0.00  0.00     0.000 OA
ATOM     16   O  IDU A1623      61.974  41.807  42.0370  0.00  0.00     0.000 OA
ENDROOT
BRANCH 1 17
ATOM     17  O4  SGN A5702      65.010  43.490  38.5960  0.00  0.00     0.000 O
BRANCH 17 21
ATOM     18  C1  SGN A5702      65.707  41.952  34.7480  0.00  0.00     0.000 C
ATOM     19  C2  SGN A5702      64.863  43.210  34.8570  0.00  0.00     0.000 C
ATOM     20  C3  SGN A5702      65.173  43.936  36.1360  0.00  0.00     0.000 C
ATOM     21  C4  SGN A5702      64.755  42.947  37.2670  0.00  0.00     0.000 C
ATOM     22  C5  SGN A5702      65.648  41.694  37.1440  0.00  0.00     0.000 C
ATOM     23  O5  SGN A5702      65.443  41.114  35.8760  0.00  0.00     0.000 O
ATOM     24   O  SGN A5702      67.079  42.224  34.6450  0.00  0.00     0.000 OA
ATOM     25   N  SGN A5702      65.165  44.030  33.7360  0.00  0.00     0.000 N
ATOM     27  HD  SGN A5702      64.307  44.137  33.7860  0.00  0.00     0.000 HD
ATOM     27   S  SGN A5702      63.929  43.919  32.4780  0.00  0.00     0.000 S
ATOM     28   O  SGN A5702      63.682  42.523  32.2000  0.00  0.00     0.000 OA
ATOM     29   O  SGN A5702      64.442  44.510  31.2810  0.00  0.00     0.000 OA
ATOM     30   O  SGN A5702      62.783  44.627  33.0130  0.00  0.00     0.000 OA
ATOM     31   O  SGN A5702      64.377  45.093  36.2030  0.00  0.00     0.000 O
ATOM     33  HD  SGN A5702      63.519  45.201  36.2540  0.00  0.00     0.000 HD
ATOM     33   C  SGN A5702      65.310  40.655  38.1710  0.00  0.00     0.000 C
ATOM     34   O  SGN A5702      66.041  41.077  39.3060  0.00  0.00     0.000 O
ATOM     35   S  SGN A5702      66.651  39.871  40.3870  0.00  0.00     0.000 S
ATOM     36   O  SGN A5702      67.781  40.346  41.1150  0.00  0.00     0.000 OA
ATOM     37   O  SGN A5702      67.029  38.720  39.6170  0.00  0.00     0.000 OA
ATOM     38   O  SGN A5702      65.577  39.606  41.3020  0.00  0.00     0.000 OA
ENDBRANCH 17 21
ENDBRANCH 1 17
TORSDOF 2
ENDMDL
MODEL 25
REMARK VINA RESULT:      -1.6      2.635      7.998
ROOT
ATOM      1  C1  IDU A1623      63.002  40.578  37.3510  0.00  0.00     0.000 C
ATOM      2  C2  IDU A1623      62.524  40.394  38.8000  0.00  0.00     0.000 C
ATOM      3  C3  IDU A1623      62.439  38.900  39.1460  0.00  0.00     0.000 C
ATOM      4  C4  IDU A1623      63.845  38.301  38.9900  0.00  0.00     0.000 C
ATOM      5  C5  IDU A1623      64.354  38.529  37.5490  0.00  0.00     0.000 C
ATOM      6  O5  IDU A1623      64.340  39.977  37.2690  0.00  0.00     0.000 O
ATOM      7   O  IDU A1623      63.460  41.021  39.6380  0.00  0.00     0.000 O
ATOM      8   S  IDU A1623      63.018  41.295  41.2970  0.00  0.00     0.000 S
ATOM      9   O  IDU A1623      64.129  41.955  41.9130  0.00  0.00     0.000 OA
ATOM     10   O  IDU A1623      62.775  40.033  41.9800  0.00  0.00     0.000 OA
ATOM     11   O  IDU A1623      61.815  42.025  41.3750  0.00  0.00     0.000 OA
ATOM     12   O  IDU A1623      61.561  38.255  38.2670  0.00  0.00     0.000 O
ATOM     14  HD  IDU A1623      62.404  38.297  38.4610  0.00  0.00     0.000 HD
ATOM     14   C  IDU A1623      65.741  37.967  37.4500  0.00  0.00     0.000 C
ATOM     15   O  IDU A1623      65.895  36.748  37.6630  0.00  0.00     0.000 OA
ATOM     16   O  IDU A1623      66.670  38.741  37.1500  0.00  0.00     0.000 OA
ENDROOT
BRANCH 1 17
ATOM     17  O4  SGN A5702      62.975  41.936  36.9590  0.00  0.00     0.000 O
BRANCH 17 21
ATOM     18  C1  SGN A5702      63.959  44.246  33.5890  0.00  0.00     0.000 C
ATOM     19  C2  SGN A5702      64.245  42.755  33.5240  0.00  0.00     0.000 C
ATOM     20  C3  SGN A5702      63.358  42.013  34.4840  0.00  0.00     0.000 C
ATOM     21  C4  SGN A5702      63.763  42.545  35.8930  0.00  0.00     0.000 C
ATOM     22  C5  SGN A5702      63.435  44.053  35.9340  0.00  0.00     0.000 C
ATOM     23  O5  SGN A5702      64.173  44.705  34.9260  0.00  0.00     0.000 O
ATOM     24   O  SGN A5702      62.664  44.571  33.1580  0.00  0.00     0.000 OA
ATOM     25   N  SGN A5702      64.000  42.327  32.1910  0.00  0.00     0.000 N
ATOM     27  HD  SGN A5702      64.716  41.876  32.3750  0.00  0.00     0.000 HD
ATOM     27   S  SGN A5702      65.494  42.139  31.2670  0.00  0.00     0.000 S
ATOM     28   O  SGN A5702      66.280  43.343  31.4170  0.00  0.00     0.000 OA
ATOM     29   O  SGN A5702      65.161  42.015  29.8820  0.00  0.00     0.000 OA
ATOM     30   O  SGN A5702      66.124  40.951  31.8080  0.00  0.00     0.000 OA
ATOM     31   O  SGN A5702      63.648  40.640  34.3970  0.00  0.00     0.000 O
ATOM     33  HD  SGN A5702      64.364  40.189  34.5810  0.00  0.00     0.000 HD
ATOM     33   C  SGN A5702      63.815  44.680  37.2420  0.00  0.00     0.000 C
ATOM     34   O  SGN A5702      62.698  44.404  38.0650  0.00  0.00     0.000 O
ATOM     35   S  SGN A5702      62.272  45.554  39.2870  0.00  0.00     0.000 S
ATOM     36   O  SGN A5702      60.893  45.460  39.6340  0.00  0.00     0.000 OA
ATOM     37   O  SGN A5702      62.550  46.871  38.7870  0.00  0.00     0.000 OA
ATOM     38   O  SGN A5702      63.072  45.207  40.4270  0.00  0.00     0.000 OA
ENDBRANCH 17 21
ENDBRANCH 1 17
TORSDOF 2
ENDMDL
MODEL 26
REMARK VINA RESULT:      -1.5      3.302      7.437
ROOT
ATOM      1  C1  IDU A1623      64.748  41.437  37.2000  0.00  0.00     0.000 C
ATOM      2  C2  IDU A1623      64.390  41.676  38.6750  0.00  0.00     0.000 C
ATOM      3  C3  IDU A1623      63.727  43.050  38.8460  0.00  0.00     0.000 C
ATOM      4  C4  IDU A1623      62.445  43.063  37.9990  0.00  0.00     0.000 C
ATOM      5  C5  IDU A1623      62.792  42.770  36.5220  0.00  0.00     0.000 C
ATOM      6  O5  IDU A1623      63.486  41.471  36.4490  0.00  0.00     0.000 O
ATOM      7   O  IDU A1623      63.494  40.667  39.0620  0.00  0.00     0.000 O
ATOM      8   S  IDU A1623      63.185  40.455  40.7600  0.00  0.00     0.000 S
ATOM      9   O  IDU A1623      62.263  39.365  40.8760  0.00  0.00     0.000 OA
ATOM     10   O  IDU A1623      62.581  41.652  41.3270  0.00  0.00     0.000 OA
ATOM     11   O  IDU A1623      64.390  40.250  41.4610  0.00  0.00     0.000 OA
ATOM     12   O  IDU A1623      64.589  44.057  38.3930  0.00  0.00     0.000 O
ATOM     14  HD  IDU A1623      63.841  43.672  38.1860  0.00  0.00     0.000 HD
ATOM     14   C  IDU A1623      61.513  42.751  35.7380  0.00  0.00     0.000 C
ATOM     15   O  IDU A1623      60.825  43.790  35.7150  0.00  0.00     0.000 OA
ATOM     16   O  IDU A1623      61.204  41.702  35.1410  0.00  0.00     0.000 OA
ENDROOT
BRANCH 1 17
ATOM     17  O4  SGN A5702      65.470  40.234  37.0240  0.00  0.00     0.000 O
BRANCH 17 21
ATOM     18  C1  SGN A5702      67.225  37.881  34.0170  0.00  0.00     0.000 C
ATOM     19  C2  SGN A5702      66.736  39.266  33.6270  0.00  0.00     0.000 C
ATOM     20  C3  SGN A5702      66.686  40.159  34.8350  0.00  0.00     0.000 C
ATOM     21  C4  SGN A5702      65.633  39.498  35.7760  0.00  0.00     0.000 C
ATOM     22  C5  SGN A5702      66.172  38.107  36.1740  0.00  0.00     0.000 C
ATOM     23  O5  SGN A5702      66.347  37.337  35.0050  0.00  0.00     0.000 O
ATOM     24   O  SGN A5702      68.549  37.882  34.4800  0.00  0.00     0.000 OA
ATOM     25   N  SGN A5702      67.642  39.787  32.6630  0.00  0.00     0.000 N
ATOM     27  HD  SGN A5702      66.886  40.052  32.3330  0.00  0.00     0.000 HD
ATOM     27   S  SGN A5702      67.011  39.655  31.0180  0.00  0.00     0.000 S
ATOM     28   O  SGN A5702      66.564  38.297  30.8060  0.00  0.00     0.000 OA
ATOM     29   O  SGN A5702      68.078  39.902  30.0990  0.00  0.00     0.000 OA
ATOM     30   O  SGN A5702      65.955  40.644  30.9400  0.00  0.00     0.000 OA
ATOM     31   O  SGN A5702      66.232  41.430  34.4380  0.00  0.00     0.000 O
ATOM     33  HD  SGN A5702      65.477  41.695  34.1080  0.00  0.00     0.000 HD
ATOM     33   C  SGN A5702      65.219  37.363  37.0600  0.00  0.00     0.000 C
ATOM     34   O  SGN A5702      65.525  37.861  38.3480  0.00  0.00     0.000 O
ATOM     35   S  SGN A5702      65.352  36.799  39.7030  0.00  0.00     0.000 S
ATOM     36   O  SGN A5702      66.184  37.198  40.7890  0.00  0.00     0.000 OA
ATOM     37   O  SGN A5702      65.712  35.471  39.2890  0.00  0.00     0.000 OA
ATOM     38   O  SGN A5702      63.976  36.909  40.0970  0.00  0.00     0.000 OA
ENDBRANCH 17 21
ENDBRANCH 1 17
TORSDOF 2
ENDMDL
MODEL 27
REMARK VINA RESULT:      -0.8      3.081      6.878
ROOT
ATOM      1  C1  IDU A1623      63.050  43.903  39.2050  0.00  0.00     0.000 C
ATOM      2  C2  IDU A1623      64.013  45.075  39.4540  0.00  0.00     0.000 C
ATOM      3  C3  IDU A1623      63.225  46.374  39.6760  0.00  0.00     0.000 C
ATOM      4  C4  IDU A1623      62.330  46.175  40.9090  0.00  0.00     0.000 C
ATOM      5  C5  IDU A1623      61.395  44.965  40.6880  0.00  0.00     0.000 C
ATOM      6  O5  IDU A1623      62.222  43.776  40.4120  0.00  0.00     0.000 O
ATOM      7   O  IDU A1623      64.761  44.773  40.6030  0.00  0.00     0.000 O
ATOM      8   S  IDU A1623      66.174  45.730  40.9350  0.00  0.00     0.000 S
ATOM      9   O  IDU A1623      66.750  45.206  42.1370  0.00  0.00     0.000 OA
ATOM     10   O  IDU A1623      65.813  47.124  41.1480  0.00  0.00     0.000 OA
ATOM     11   O  IDU A1623      67.054  45.712  39.8350  0.00  0.00     0.000 OA
ATOM     12   O  IDU A1623      62.422  46.642  38.5610  0.00  0.00     0.000 O
ATOM     14  HD  IDU A1623      62.357  46.409  39.3930  0.00  0.00     0.000 HD
ATOM     14   C  IDU A1623      60.570  44.781  41.9270  0.00  0.00     0.000 C
ATOM     15   O  IDU A1623      59.821  45.716  42.2750  0.00  0.00     0.000 OA
ATOM     16   O  IDU A1623      60.664  43.702  42.5420  0.00  0.00     0.000 OA
ENDROOT
BRANCH 1 17
ATOM     17  O4  SGN A5702      63.743  42.716  38.8760  0.00  0.00     0.000 O
BRANCH 17 21
ATOM     18  C1  SGN A5702      64.539  39.920  35.8410  0.00  0.00     0.000 C
ATOM     19  C2  SGN A5702      64.404  41.377  35.4340  0.00  0.00     0.000 C
ATOM     20  C3  SGN A5702      64.699  42.274  36.6030  0.00  0.00     0.000 C
ATOM     21  C4  SGN A5702      63.595  41.938  37.6510  0.00  0.00     0.000 C
ATOM     22  C5  SGN A5702      63.777  40.462  38.0640  0.00  0.00     0.000 C
ATOM     23  O5  SGN A5702      63.638  39.651  36.9190  0.00  0.00     0.000 O
ATOM     24   O  SGN A5702      65.851  39.573  36.1980  0.00  0.00     0.000 OA
ATOM     25   N  SGN A5702      65.327  41.616  34.3790  0.00  0.00     0.000 N
ATOM     27  HD  SGN A5702      64.644  42.068  34.0990  0.00  0.00     0.000 HD
ATOM     27   S  SGN A5702      64.542  41.627  32.7970  0.00  0.00     0.000 S
ATOM     28   O  SGN A5702      63.734  40.435  32.6780  0.00  0.00     0.000 OA
ATOM     29   O  SGN A5702      65.552  41.561  31.7870  0.00  0.00     0.000 OA
ATOM     30   O  SGN A5702      63.785  42.862  32.7610  0.00  0.00     0.000 OA
ATOM     31   O  SGN A5702      64.567  43.612  36.1900  0.00  0.00     0.000 O
ATOM     33  HD  SGN A5702      63.883  44.064  35.9100  0.00  0.00     0.000 HD
ATOM     33   C  SGN A5702      62.742  40.019  39.0530  0.00  0.00     0.000 C
ATOM     34   O  SGN A5702      63.281  40.442  40.2910  0.00  0.00     0.000 O
ATOM     35   S  SGN A5702      62.951  39.491  41.6990  0.00  0.00     0.000 S
ATOM     36   O  SGN A5702      63.951  39.673  42.6980  0.00  0.00     0.000 OA
ATOM     37   O  SGN A5702      62.907  38.108  41.3150  0.00  0.00     0.000 OA
ATOM     38   O  SGN A5702      61.694  39.975  42.1960  0.00  0.00     0.000 OA
ENDBRANCH 17 21
ENDBRANCH 1 17
TORSDOF 2
ENDMDL
MODEL 28
REMARK VINA RESULT:       0.3      2.828      4.765
ROOT
ATOM      1  C1  IDU A1623      62.945  42.951  39.1240  0.00  0.00     0.000 C
ATOM      2  C2  IDU A1623      64.233  43.721  39.4530  0.00  0.00     0.000 C
ATOM      3  C3  IDU A1623      63.896  45.065  40.1150  0.00  0.00     0.000 C
ATOM      4  C4  IDU A1623      63.129  44.770  41.4130  0.00  0.00     0.000 C
ATOM      5  C5  IDU A1623      61.859  43.949  41.0960  0.00  0.00     0.000 C
ATOM      6  O5  IDU A1623      62.259  42.712  40.4020  0.00  0.00     0.000 O
ATOM      7   O  IDU A1623      64.984  42.933  40.3400  0.00  0.00     0.000 O
ATOM      8   S  IDU A1623      66.645  43.367  40.6150  0.00  0.00     0.000 S
ATOM      9   O  IDU A1623      67.174  42.403  41.5320  0.00  0.00     0.000 OA
ATOM     10   O  IDU A1623      66.740  44.692  41.2090  0.00  0.00     0.000 OA
ATOM     11   O  IDU A1623      67.349  43.429  39.3960  0.00  0.00     0.000 OA
ATOM     12   O  IDU A1623      63.086  45.827  39.2640  0.00  0.00     0.000 O
ATOM     14  HD  IDU A1623      63.051  45.398  40.0150  0.00  0.00     0.000 HD
ATOM     14   C  IDU A1623      61.163  43.648  42.3900  0.00  0.00     0.000 C
ATOM     15   O  IDU A1623      60.769  44.610  43.0800  0.00  0.00     0.000 OA
ATOM     16   O  IDU A1623      61.003  42.455  42.7090  0.00  0.00     0.000 OA
ENDROOT
BRANCH 1 17
ATOM     17  O4  SGN A5702      63.214  41.764  38.4040  0.00  0.00     0.000 O
BRANCH 17 21
ATOM     18  C1  SGN A5702      64.517  37.776  38.6550  0.00  0.00     0.000 C
ATOM     19  C2  SGN A5702      63.530  38.258  39.7050  0.00  0.00     0.000 C
ATOM     20  C3  SGN A5702      62.745  39.429  39.1830  0.00  0.00     0.000 C
ATOM     21  C4  SGN A5702      63.808  40.544  38.9390  0.00  0.00     0.000 C
ATOM     22  C5  SGN A5702      64.777  40.034  37.8500  0.00  0.00     0.000 C
ATOM     23  O5  SGN A5702      65.393  38.852  38.3100  0.00  0.00     0.000 O
ATOM     24   O  SGN A5702      63.888  37.266  37.5100  0.00  0.00     0.000 OA
ATOM     25   N  SGN A5702      62.661  37.175  40.0080  0.00  0.00     0.000 N
ATOM     27  HD  SGN A5702      62.786  37.506  40.7980  0.00  0.00     0.000 HD
ATOM     27   S  SGN A5702      63.100  36.373  41.5200  0.00  0.00     0.000 S
ATOM     28   O  SGN A5702      64.511  36.068  41.4830  0.00  0.00     0.000 OA
ATOM     29   O  SGN A5702      62.396  35.131  41.5980  0.00  0.00     0.000 OA
ATOM     30   O  SGN A5702      62.723  37.305  42.5630  0.00  0.00     0.000 OA
ATOM     31   O  SGN A5702      61.842  39.847  40.1770  0.00  0.00     0.000 O
ATOM     33  HD  SGN A5702      61.968  40.178  40.9670  0.00  0.00     0.000 HD
ATOM     33   C  SGN A5702      65.867  41.021  37.5560  0.00  0.00     0.000 C
ATOM     34   O  SGN A5702      65.262  41.896  36.6220  0.00  0.00     0.000 O
ATOM     35   S  SGN A5702      66.259  42.616  35.4060  0.00  0.00     0.000 S
ATOM     36   O  SGN A5702      65.499  42.984  34.2570  0.00  0.00     0.000 OA
ATOM     37   O  SGN A5702      67.269  41.668  35.0250  0.00  0.00     0.000 OA
ATOM     38   O  SGN A5702      66.801  43.799  36.0120  0.00  0.00     0.000 OA
ENDBRANCH 17 21
ENDBRANCH 1 17
TORSDOF 2
ENDMDL
MODEL 29
REMARK VINA RESULT:       2.4      3.226      9.633
ROOT
ATOM      1  C1  IDU A1623      63.338  36.588  38.9280  0.00  0.00     0.000 C
ATOM      2  C2  IDU A1623      63.035  35.565  40.0330  0.00  0.00     0.000 C
ATOM      3  C3  IDU A1623      62.394  34.306  39.4330  0.00  0.00     0.000 C
ATOM      4  C4  IDU A1623      63.392  33.701  38.4340  0.00  0.00     0.000 C
ATOM      5  C5  IDU A1623      63.743  34.743  37.3480  0.00  0.00     0.000 C
ATOM      6  O5  IDU A1623      64.286  35.945  38.0070  0.00  0.00     0.000 O
ATOM      7   O  IDU A1623      64.253  35.229  40.6460  0.00  0.00     0.000 O
ATOM      8   S  IDU A1623      64.200  34.372  42.1580  0.00  0.00     0.000 S
ATOM      9   O  IDU A1623      65.559  34.175  42.5650  0.00  0.00     0.000 OA
ATOM     10   O  IDU A1623      63.558  33.076  41.9930  0.00  0.00     0.000 OA
ATOM     11   O  IDU A1623      63.427  35.079  43.1010  0.00  0.00     0.000 OA
ATOM     12   O  IDU A1623      61.215  34.646  38.7580  0.00  0.00     0.000 O
ATOM     14  HD  IDU A1623      62.019  34.365  38.6020  0.00  0.00     0.000 HD
ATOM     14   C  IDU A1623      64.748  34.128  36.4190  0.00  0.00     0.000 C
ATOM     15   O  IDU A1623      64.416  33.101  35.7950  0.00  0.00     0.000 OA
ATOM     16   O  IDU A1623      65.861  34.677  36.3090  0.00  0.00     0.000 OA
ENDROOT
BRANCH 1 17
ATOM     17  O4  SGN A5702      63.817  37.808  39.4590  0.00  0.00     0.000 O
BRANCH 17 21
ATOM     18  C1  SGN A5702      62.136  41.139  37.5260  0.00  0.00     0.000 C
ATOM     19  C2  SGN A5702      63.323  40.466  36.8580  0.00  0.00     0.000 C
ATOM     20  C3  SGN A5702      63.434  39.038  37.3110  0.00  0.00     0.000 C
ATOM     21  C4  SGN A5702      63.700  39.125  38.8440  0.00  0.00     0.000 C
ATOM     22  C5  SGN A5702      62.467  39.787  39.4950  0.00  0.00     0.000 C
ATOM     23  O5  SGN A5702      62.301  41.075  38.9450  0.00  0.00     0.000 O
ATOM     24   O  SGN A5702      60.907  40.579  37.1470  0.00  0.00     0.000 OA
ATOM     25   N  SGN A5702      63.116  40.527  35.4530  0.00  0.00     0.000 N
ATOM     27  HD  SGN A5702      63.965  40.694  35.4970  0.00  0.00     0.000 HD
ATOM     27   S  SGN A5702      64.064  41.811  34.6960  0.00  0.00     0.000 S
ATOM     28   O  SGN A5702      63.841  43.037  35.4260  0.00  0.00     0.000 OA
ATOM     29   O  SGN A5702      63.579  42.012  33.3660  0.00  0.00     0.000 OA
ATOM     30   O  SGN A5702      65.434  41.341  34.7350  0.00  0.00     0.000 OA
ATOM     31   O  SGN A5702      64.539  38.447  36.6720  0.00  0.00     0.000 O
ATOM     33  HD  SGN A5702      65.387  38.613  36.7170  0.00  0.00     0.000 HD
ATOM     33   C  SGN A5702      62.628  39.951  40.9770  0.00  0.00     0.000 C
ATOM     34   O  SGN A5702      62.232  38.691  41.4830  0.00  0.00     0.000 O
ATOM     35   S  SGN A5702      61.457  38.633  43.0290  0.00  0.00     0.000 S
ATOM     36   O  SGN A5702      60.639  37.473  43.1600  0.00  0.00     0.000 OA
ATOM     37   O  SGN A5702      60.644  39.808  43.1750  0.00  0.00     0.000 OA
ATOM     38   O  SGN A5702      62.526  38.569  43.9860  0.00  0.00     0.000 OA
ENDBRANCH 17 21
ENDBRANCH 1 17
TORSDOF 2
ENDMDL
MODEL 30
REMARK VINA RESULT:       4.8      3.566      5.663
ROOT
ATOM      1  C1  IDU A1623      63.232  43.749  39.1730  0.00  0.00     0.000 C
ATOM      2  C2  IDU A1623      64.296  44.721  39.7060  0.00  0.00     0.000 C
ATOM      3  C3  IDU A1623      63.631  45.868  40.4790  0.00  0.00     0.000 C
ATOM      4  C4  IDU A1623      62.860  45.255  41.6590  0.00  0.00     0.000 C
ATOM      5  C5  IDU A1623      61.823  44.237  41.1330  0.00  0.00     0.000 C
ATOM      6  O5  IDU A1623      62.529  43.210  40.3450  0.00  0.00     0.000 O
ATOM      7   O  IDU A1623      65.139  43.997  40.5650  0.00  0.00     0.000 O
ATOM      8   S  IDU A1623      66.643  44.726  41.0420  0.00  0.00     0.000 S
ATOM      9   O  IDU A1623      67.305  43.782  41.8910  0.00  0.00     0.000 OA
ATOM     10   O  IDU A1623      66.407  45.954  41.7870  0.00  0.00     0.000 OA
ATOM     11   O  IDU A1623      67.398  45.090  39.9090  0.00  0.00     0.000 OA
ATOM     12   O  IDU A1623      62.735  46.549  39.6470  0.00  0.00     0.000 O
ATOM     14  HD  IDU A1623      62.743  46.028  40.3380  0.00  0.00     0.000 HD
ATOM     14   C  IDU A1623      61.123  43.633  42.3140  0.00  0.00     0.000 C
ATOM     15   O  IDU A1623      60.484  44.395  43.0680  0.00  0.00     0.000 OA
ATOM     16   O  IDU A1623      61.204  42.402  42.4810  0.00  0.00     0.000 OA
ENDROOT
BRANCH 1 17
ATOM     17  O4  SGN A5702      63.800  42.748  38.3530  0.00  0.00     0.000 O
BRANCH 17 21
ATOM     18  C1  SGN A5702      67.281  40.605  37.3750  0.00  0.00     0.000 C
ATOM     19  C2  SGN A5702      66.818  40.567  38.8220  0.00  0.00     0.000 C
ATOM     20  C3  SGN A5702      65.345  40.854  38.9040  0.00  0.00     0.000 C
ATOM     21  C4  SGN A5702      65.190  42.307  38.3620  0.00  0.00     0.000 C
ATOM     22  C5  SGN A5702      65.643  42.306  36.8860  0.00  0.00     0.000 C
ATOM     23  O5  SGN A5702      66.990  41.893  36.8260  0.00  0.00     0.000 O
ATOM     24   O  SGN A5702      66.706  39.594  36.5920  0.00  0.00     0.000 OA
ATOM     25   N  SGN A5702      67.100  39.270  39.3300  0.00  0.00     0.000 N
ATOM     27  HD  SGN A5702      67.317  39.759  40.0100  0.00  0.00     0.000 HD
ATOM     27   S  SGN A5702      68.558  39.248  40.3260  0.00  0.00     0.000 S
ATOM     28   O  SGN A5702      69.624  39.892  39.5930  0.00  0.00     0.000 OA
ATOM     29   O  SGN A5702      68.946  37.888  40.5380  0.00  0.00     0.000 OA
ATOM     30   O  SGN A5702      68.187  39.929  41.5510  0.00  0.00     0.000 OA
ATOM     31   O  SGN A5702      64.951  40.808  40.2530  0.00  0.00     0.000 O
ATOM     33  HD  SGN A5702      65.168  41.298  40.9340  0.00  0.00     0.000 HD
ATOM     33   C  SGN A5702      65.565  43.670  36.2690  0.00  0.00     0.000 C
ATOM     34   O  SGN A5702      64.212  43.761  35.8650  0.00  0.00     0.000 O
ATOM     35   S  SGN A5702      63.838  44.678  34.4460  0.00  0.00     0.000 S
ATOM     36   O  SGN A5702      62.617  44.246  33.8510  0.00  0.00     0.000 OA
ATOM     37   O  SGN A5702      64.911  44.516  33.5040  0.00  0.00     0.000 OA
ATOM     38   O  SGN A5702      63.690  46.032  34.8990  0.00  0.00     0.000 OA
ENDBRANCH 17 21
ENDBRANCH 1 17
TORSDOF 2
ENDMDL
