ROOT
ATOM      1  C1  NAG A1181      11.940 -17.124   -4.600  0.00  0.00     0.000 C
ATOM      2  C2  NAG A1181      12.800 -18.311   -5.040  0.00  0.00     0.000 C
ATOM      3  C3  NAG A1181      12.600 -18.629   -6.510  0.00  0.00     0.000 C
ATOM      4  C4  NAG A1181      11.110 -18.904   -6.680  0.00  0.00     0.000 C
ATOM      5  C5  NAG A1181      10.380 -17.592   -6.360  0.00  0.00     0.000 C
ATOM      6  O5  NAG A1181      10.580 -17.273   -4.980  0.00  0.00     0.000 O
ATOM      7   N  NAG A1181      14.200 -18.042   -4.750  0.00  0.00     0.000 N
ATOM      9  HD  NAG A1181      14.700 -17.542   -4.250  0.00  0.00     0.000 HD
ATOM      9   C  NAG A1181      14.930 -18.787   -3.900  0.00  0.00     0.000 C
ATOM     10   C  NAG A1181      14.630 -20.259   -3.820  0.00  0.00     0.000 C
ATOM     11   O  NAG A1181      15.820 -18.310   -3.210  0.00  0.00     0.000 OA
ATOM     12   O  NAG A1181      13.400 -19.721   -6.930  0.00  0.00     0.000 O
ATOM     14  HD  NAG A1181      13.900 -19.221   -6.430  0.00  0.00     0.000 HD
ATOM     14   O  NAG A1181      10.860 -19.374   -7.990  0.00  0.00     0.000 O
ATOM     16  HD  NAG A1181      11.360 -18.874   -7.490  0.00  0.00     0.000 HD
ATOM     16   C  NAG A1181       8.880 -17.596   -6.700  0.00  0.00     0.000 C
ATOM     17   O  NAG A1181       8.100 -18.001   -5.600  0.00  0.00     0.000 O
ATOM     19  HD  NAG A1181       8.600 -17.501   -5.100  0.00  0.00     0.000 HD
ENDROOT
BRANCH 1 19
ATOM     19  O4  BDP A1180      12.090 -17.093   -3.170  0.00  0.00     0.000 O
BRANCH 19 23
ATOM     20  C1  BDP A1180      11.090 -14.412   -0.210  0.00  0.00     0.000 C
ATOM     21  C2  BDP A1180       9.920 -15.174   -0.850  0.00  0.00     0.000 C
ATOM     22  C3  BDP A1180      10.380 -16.335   -1.730  0.00  0.00     0.000 C
ATOM     23  C4  BDP A1180      11.560 -15.929   -2.600  0.00  0.00     0.000 C
ATOM     24  C5  BDP A1180      12.630 -15.244   -1.770  0.00  0.00     0.000 C
ATOM     25  O5  BDP A1180      12.090 -14.103   -1.150  0.00  0.00     0.000 O
ATOM     26   O  BDP A1180       9.110 -15.697    0.170  0.00  0.00     0.000 O
ATOM     28  HD  BDP A1180       9.610 -15.197    0.670  0.00  0.00     0.000 HD
ATOM     28   O  BDP A1180       9.300 -16.722   -2.570  0.00  0.00     0.000 O
ATOM     30  HD  BDP A1180       9.800 -16.222   -2.070  0.00  0.00     0.000 HD
ATOM     30   O  BDP A1180      13.650 -13.857   -3.420  0.00  0.00     0.000 OA
ATOM     31   C  BDP A1180      13.820 -14.802   -2.610  0.00  0.00     0.000 C
ATOM     32   O  BDP A1180      14.910 -15.397   -2.420  0.00  0.00     0.000 OA
BRANCH 20 33
ATOM     33  O3  NAG A1179      10.550 -13.185    0.300  0.00  0.00     0.000 O
BRANCH 33 36
ATOM     34  C1  NAG A1179      11.430 -11.643    3.620  0.00  0.00     0.000 C
ATOM     35  C2  NAG A1179      10.650 -12.483    2.610  0.00  0.00     0.000 C
ATOM     36  C3  NAG A1179      11.400 -12.594    1.270  0.00  0.00     0.000 C
ATOM     37  C4  NAG A1179      11.810 -11.211    0.790  0.00  0.00     0.000 C
ATOM     38  C5  NAG A1179      12.500 -10.452    1.920  0.00  0.00     0.000 C
ATOM     39  O5  NAG A1179      11.650 -10.389    3.050  0.00  0.00     0.000 O
ATOM     40   C  NAG A1179       9.130 -14.312    3.130  0.00  0.00     0.000 C
ATOM     41   C  NAG A1179       8.930 -15.560    3.920  0.00  0.00     0.000 C
ATOM     42   N  NAG A1179      10.340 -13.772    3.210  0.00  0.00     0.000 N
ATOM     44  HD  NAG A1179      10.840 -13.272    3.710  0.00  0.00     0.000 HD
ATOM     44   O  NAG A1179       8.220 -13.848    2.450  0.00  0.00     0.000 OA
ATOM     45   O  NAG A1179      12.700 -11.344   -0.310  0.00  0.00     0.000 O
ATOM     47  HD  NAG A1179      13.200 -10.844    0.190  0.00  0.00     0.000 HD
ATOM     47   O  NAG A1179      11.630  -8.270    1.400  0.00  0.00     0.000 O
ATOM     49  HD  NAG A1179      12.130  -7.770    1.900  0.00  0.00     0.000 HD
ATOM     49   C  NAG A1179      12.820  -9.017    1.540  0.00  0.00     0.000 C
BRANCH 34 50
ATOM     50  O4  BDP A1178      10.550 -11.537    4.740  0.00  0.00     0.000 O
BRANCH 50 54
ATOM     51  C1  BDP A1178      10.420 -11.339    8.770  0.00  0.00     0.000 C
ATOM     52  C2  BDP A1178      10.580  -9.999    8.080  0.00  0.00     0.000 C
ATOM     53  C3  BDP A1178      10.250 -10.169    6.630  0.00  0.00     0.000 C
ATOM     54  C4  BDP A1178      11.110 -11.288    6.010  0.00  0.00     0.000 C
ATOM     55  C5  BDP A1178      11.100 -12.556    6.850  0.00  0.00     0.000 C
ATOM     56  O5  BDP A1178      11.350 -12.249    8.210  0.00  0.00     0.000 O
ATOM     57   O  BDP A1178       9.700  -9.055    8.640  0.00  0.00     0.000 O
ATOM     59  HD  BDP A1178      10.200  -8.555    9.140  0.00  0.00     0.000 HD
ATOM     59   O  BDP A1178      10.590  -8.966    5.960  0.00  0.00     0.000 O
ATOM     61  HD  BDP A1178      11.090  -8.466    6.460  0.00  0.00     0.000 HD
ATOM     61   O  BDP A1178      13.320 -13.452    6.940  0.00  0.00     0.000 OA
ATOM     62   O  BDP A1178      11.910 -14.343    5.450  0.00  0.00     0.000 OA
ATOM     63   C  BDP A1178      12.190 -13.527    6.370  0.00  0.00     0.000 C
BRANCH 51 64
ATOM     64  O3  NAG A1177      10.670 -11.123   10.170  0.00  0.00     0.000 O
BRANCH 64 67
ATOM     65  C1  NAG A1177       8.990 -12.956   12.910  0.00  0.00     0.000 C
ATOM     66  C2  NAG A1177       9.210 -11.887   11.840  0.00  0.00     0.000 C
ATOM     67  C3  NAG A1177      10.380 -12.253   10.950  0.00  0.00     0.000 C
ATOM     68  C4  NAG A1177      11.610 -12.619   11.800  0.00  0.00     0.000 C
ATOM     69  C5  NAG A1177      11.260 -13.623   12.880  0.00  0.00     0.000 C
ATOM     70  O5  NAG A1177      10.170 -13.136   13.660  0.00  0.00     0.000 O
ATOM     71   O  NAG A1177       7.700  -9.474   11.280  0.00  0.00     0.000 OA
ATOM     72   C  NAG A1177       7.310 -10.612   10.850  0.00  0.00     0.000 C
ATOM     73   C  NAG A1177       6.040 -10.812   10.070  0.00  0.00     0.000 C
ATOM     74   N  NAG A1177       7.950 -11.763   11.090  0.00  0.00     0.000 N
ATOM     76  HD  NAG A1177       8.450 -11.263   11.590  0.00  0.00     0.000 HD
ATOM     76   O  NAG A1177      12.640 -13.148   10.980  0.00  0.00     0.000 O
ATOM     78  HD  NAG A1177      13.140 -12.648   11.480  0.00  0.00     0.000 HD
ATOM     78   O  NAG A1177      12.810 -12.753   14.540  0.00  0.00     0.000 O
ATOM     80  HD  NAG A1177      13.310 -12.253   15.040  0.00  0.00     0.000 HD
ATOM     80   C  NAG A1177      12.430 -13.918   13.830  0.00  0.00     0.000 C
BRANCH 65 81
ATOM     81  O4  BDP A1176       7.900 -12.567   13.760  0.00  0.00     0.000 O
BRANCH 81 85
ATOM     82  C1  BDP A1176       5.310 -14.207   16.730  0.00  0.00     0.000 C
ATOM     83  C2  BDP A1176       6.810 -14.233   17.010  0.00  0.00     0.000 C
ATOM     84  C3  BDP A1176       7.620 -13.300   16.100  0.00  0.00     0.000 C
ATOM     85  C4  BDP A1176       7.290 -13.523   14.620  0.00  0.00     0.000 C
ATOM     86  C5  BDP A1176       5.770 -13.482   14.480  0.00  0.00     0.000 C
ATOM     87  O5  BDP A1176       5.100 -14.402   15.340  0.00  0.00     0.000 O
ATOM     88   O  BDP A1176       7.010 -13.855   18.360  0.00  0.00     0.000 O
ATOM     90  HD  BDP A1176       7.510 -13.355   18.860  0.00  0.00     0.000 HD
ATOM     90   O  BDP A1176       9.010 -13.490   16.370  0.00  0.00     0.000 O
ATOM     92  HD  BDP A1176       9.510 -12.990   16.870  0.00  0.00     0.000 HD
ATOM     92   O  BDP A1176       5.570 -15.096   12.730  0.00  0.00     0.000 OA
ATOM     93   O  BDP A1176       4.760 -13.054   12.380  0.00  0.00     0.000 OA
ATOM     94   C  BDP A1176       5.350 -13.910   13.090  0.00  0.00     0.000 C
BRANCH 82 95
ATOM     95  O3  NAG A1175       4.700 -15.282   17.480  0.00  0.00     0.000 O
BRANCH 95 98
ATOM     96  C1  NAG A1175       1.680 -15.899   19.450  0.00  0.00     0.000 C
ATOM     97  C2  NAG A1175       3.150 -15.982   19.060  0.00  0.00     0.000 C
ATOM     98  C3  NAG A1175       3.340 -15.138   17.810  0.00  0.00     0.000 C
ATOM     99  C4  NAG A1175       2.390 -15.683   16.730  0.00  0.00     0.000 C
ATOM    100  C5  NAG A1175       0.950 -15.791   17.230  0.00  0.00     0.000 C
ATOM    101  O5  NAG A1175       0.860 -16.497   18.450  0.00  0.00     0.000 O
ATOM    102   O  NAG A1175       1.520 -16.597   20.650  0.00  0.00     0.000 OA
ATOM    103   C  NAG A1175       5.230 -15.904   20.450  0.00  0.00     0.000 C
ATOM    104   C  NAG A1175       5.760 -17.146   19.810  0.00  0.00     0.000 C
ATOM    105   N  NAG A1175       3.960 -15.540   20.200  0.00  0.00     0.000 N
ATOM    107  HD  NAG A1175       4.460 -15.040   20.700  0.00  0.00     0.000 HD
ATOM    107   O  NAG A1175       5.960 -15.238   21.190  0.00  0.00     0.000 OA
ATOM    108   O  NAG A1175       2.460 -14.929   15.520  0.00  0.00     0.000 O
ATOM    110  HD  NAG A1175       2.960 -14.429   16.020  0.00  0.00     0.000 HD
ATOM    110   C  NAG A1175       0.070 -16.484   16.190  0.00  0.00     0.000 C
ATOM    111   O  NAG A1175      -1.260 -16.251   16.510  0.00  0.00     0.000 O
ATOM    113  HD  NAG A1175      -0.760 -15.751   17.010  0.00  0.00     0.000 HD
ENDBRANCH 95 98
ENDBRANCH 82 95
ENDBRANCH 81 85
ENDBRANCH 65 81
ENDBRANCH 64 67
ENDBRANCH 51 64
ENDBRANCH 50 54
ENDBRANCH 34 50
ENDBRANCH 33 36
ENDBRANCH 20 33
ENDBRANCH 19 23
ENDBRANCH 1 19
TORSDOF 12