ROOT
ATOM      1  C1  NAG A1181      11.780 -17.632   -4.710  0.00  0.00     0.000 C
ATOM      2  C2  NAG A1181      12.810 -18.587   -5.310  0.00  0.00     0.000 C
ATOM      3  C3  NAG A1181      12.480 -18.923   -6.770  0.00  0.00     0.000 C
ATOM      4  C4  NAG A1181      11.020 -19.333   -6.910  0.00  0.00     0.000 C
ATOM      5  C5  NAG A1181      10.070 -18.391   -6.160  0.00  0.00     0.000 C
ATOM      6  O5  NAG A1181      10.500 -18.191   -4.820  0.00  0.00     0.000 O
ATOM      7   O  NAG A1181      16.130 -19.057   -5.230  0.00  0.00     0.000 OA
ATOM      8   C  NAG A1181      15.140 -18.667   -4.610  0.00  0.00     0.000 C
ATOM      9   C  NAG A1181      15.010 -18.924   -3.130  0.00  0.00     0.000 C
ATOM     10   N  NAG A1181      14.140 -18.008   -5.190  0.00  0.00     0.000 N
ATOM     12  HD  NAG A1181      14.640 -17.508   -4.690  0.00  0.00     0.000 HD
ATOM     12   O  NAG A1181      13.340 -19.961   -7.230  0.00  0.00     0.000 O
ATOM     14  HD  NAG A1181      13.840 -19.461   -6.730  0.00  0.00     0.000 HD
ATOM     14   O  NAG A1181      10.670 -19.354   -8.280  0.00  0.00     0.000 O
ATOM     16  HD  NAG A1181      11.170 -18.854   -7.780  0.00  0.00     0.000 HD
ATOM     16   O  NAG A1181       7.720 -17.917   -5.840  0.00  0.00     0.000 O
ATOM     18  HD  NAG A1181       8.220 -17.417   -5.340  0.00  0.00     0.000 HD
ATOM     18   C  NAG A1181       8.640 -18.951   -6.120  0.00  0.00     0.000 C
ENDROOT
BRANCH 1 19
ATOM     19  O4  BDP A1180      12.140 -17.402   -3.340  0.00  0.00     0.000 O
BRANCH 19 23
ATOM     20  C1  BDP A1180      11.040 -14.817   -0.330  0.00  0.00     0.000 C
ATOM     21  C2  BDP A1180       9.910 -15.714   -0.840  0.00  0.00     0.000 C
ATOM     22  C3  BDP A1180      10.350 -16.754   -1.880  0.00  0.00     0.000 C
ATOM     23  C4  BDP A1180      11.490 -16.279   -2.790  0.00  0.00     0.000 C
ATOM     24  C5  BDP A1180      12.520 -15.474   -2.010  0.00  0.00     0.000 C
ATOM     25  O5  BDP A1180      11.860 -14.387   -1.390  0.00  0.00     0.000 O
ATOM     26   O  BDP A1180       9.380 -16.403    0.260  0.00  0.00     0.000 O
ATOM     28  HD  BDP A1180       9.880 -15.903    0.760  0.00  0.00     0.000 HD
ATOM     28   O  BDP A1180       9.240 -17.097   -2.670  0.00  0.00     0.000 O
ATOM     30  HD  BDP A1180       9.740 -16.597   -2.170  0.00  0.00     0.000 HD
ATOM     30   C  BDP A1180      13.690 -14.978   -2.860  0.00  0.00     0.000 C
ATOM     31   O  BDP A1180      14.820 -15.497   -2.650  0.00  0.00     0.000 OA
ATOM     32   O  BDP A1180      13.480 -14.074   -3.700  0.00  0.00     0.000 OA
BRANCH 20 33
ATOM     33  O3  NAG A1179      10.470 -13.689    0.340  0.00  0.00     0.000 O
BRANCH 33 36
ATOM     34  C1  NAG A1179      11.350 -12.243    3.690  0.00  0.00     0.000 C
ATOM     35  C2  NAG A1179      10.660 -13.119    2.650  0.00  0.00     0.000 C
ATOM     36  C3  NAG A1179      11.360 -13.125    1.290  0.00  0.00     0.000 C
ATOM     37  C4  NAG A1179      11.700 -11.701    0.870  0.00  0.00     0.000 C
ATOM     38  C5  NAG A1179      12.430 -10.983    2.010  0.00  0.00     0.000 C
ATOM     39  O5  NAG A1179      11.600 -10.962    3.150  0.00  0.00     0.000 O
ATOM     40   O  NAG A1179       8.290 -14.642    2.690  0.00  0.00     0.000 OA
ATOM     41   C  NAG A1179       9.260 -14.957    3.370  0.00  0.00     0.000 C
ATOM     42   C  NAG A1179       9.100 -15.931    4.500  0.00  0.00     0.000 C
ATOM     43   N  NAG A1179      10.480 -14.471    3.160  0.00  0.00     0.000 N
ATOM     45  HD  NAG A1179      10.980 -13.971    3.660  0.00  0.00     0.000 HD
ATOM     45   O  NAG A1179      12.490 -11.728   -0.300  0.00  0.00     0.000 O
ATOM     47  HD  NAG A1179      12.990 -11.228    0.200  0.00  0.00     0.000 HD
ATOM     47   O  NAG A1179      11.670  -8.800    1.270  0.00  0.00     0.000 O
ATOM     49  HD  NAG A1179      12.170  -8.300    1.770  0.00  0.00     0.000 HD
ATOM     49   C  NAG A1179      12.810  -9.549    1.640  0.00  0.00     0.000 C
BRANCH 34 50
ATOM     50  O4  BDP A1178      10.430 -12.211    4.800  0.00  0.00     0.000 O
BRANCH 50 54
ATOM     51  C1  BDP A1178      10.240 -11.783    8.770  0.00  0.00     0.000 C
ATOM     52  C2  BDP A1178      10.400 -10.474    8.010  0.00  0.00     0.000 C
ATOM     53  C3  BDP A1178      10.100 -10.712    6.550  0.00  0.00     0.000 C
ATOM     54  C4  BDP A1178      11.000 -11.814    6.020  0.00  0.00     0.000 C
ATOM     55  C5  BDP A1178      11.030 -13.035    6.930  0.00  0.00     0.000 C
ATOM     56  O5  BDP A1178      11.190 -12.708    8.310  0.00  0.00     0.000 O
ATOM     57   O  BDP A1178       9.520  -9.498    8.500  0.00  0.00     0.000 O
ATOM     59  HD  BDP A1178      10.020  -8.998    9.000  0.00  0.00     0.000 HD
ATOM     59   O  BDP A1178      10.280  -9.530    5.800  0.00  0.00     0.000 O
ATOM     61  HD  BDP A1178      10.780  -9.030    6.300  0.00  0.00     0.000 HD
ATOM     61   O  BDP A1178      13.280 -13.880    6.870  0.00  0.00     0.000 OA
ATOM     62   O  BDP A1178      11.750 -14.824    5.560  0.00  0.00     0.000 OA
ATOM     63   C  BDP A1178      12.110 -13.987    6.430  0.00  0.00     0.000 C
BRANCH 51 64
ATOM     64  O3  NAG A1177      10.370 -11.477   10.170  0.00  0.00     0.000 O
BRANCH 64 67
ATOM     65  C1  NAG A1177       8.520 -13.158   12.950  0.00  0.00     0.000 C
ATOM     66  C2  NAG A1177       8.790 -12.115   11.870  0.00  0.00     0.000 C
ATOM     67  C3  NAG A1177       9.980 -12.536   11.020  0.00  0.00     0.000 C
ATOM     68  C4  NAG A1177      11.180 -12.909   11.890  0.00  0.00     0.000 C
ATOM     69  C5  NAG A1177      10.760 -13.946   12.930  0.00  0.00     0.000 C
ATOM     70  O5  NAG A1177       9.690 -13.443   13.700  0.00  0.00     0.000 O
ATOM     71   O  NAG A1177       7.200  -9.763   11.390  0.00  0.00     0.000 OA
ATOM     72   C  NAG A1177       6.880 -10.867   10.940  0.00  0.00     0.000 C
ATOM     73   C  NAG A1177       5.550 -11.053   10.260  0.00  0.00     0.000 C
ATOM     74   N  NAG A1177       7.640 -11.957   10.990  0.00  0.00     0.000 N
ATOM     76  HD  NAG A1177       8.140 -11.457   11.490  0.00  0.00     0.000 HD
ATOM     76   O  NAG A1177      12.190 -13.404   11.030  0.00  0.00     0.000 O
ATOM     78  HD  NAG A1177      12.690 -12.904   11.530  0.00  0.00     0.000 HD
ATOM     78   C  NAG A1177      11.910 -14.345   13.860  0.00  0.00     0.000 C
ATOM     79   O  NAG A1177      11.750 -13.741   15.130  0.00  0.00     0.000 O
ATOM     81  HD  NAG A1177      12.250 -13.241   15.630  0.00  0.00     0.000 HD
BRANCH 65 81
ATOM     81  O4  BDP A1176       7.450 -12.686   13.780  0.00  0.00     0.000 O
BRANCH 81 85
ATOM     82  C1  BDP A1176       4.950 -14.208   16.730  0.00  0.00     0.000 C
ATOM     83  C2  BDP A1176       6.440 -14.119   17.090  0.00  0.00     0.000 C
ATOM     84  C3  BDP A1176       7.320 -13.452   16.040  0.00  0.00     0.000 C
ATOM     85  C4  BDP A1176       6.900 -13.701   14.600  0.00  0.00     0.000 C
ATOM     86  C5  BDP A1176       5.380 -13.661   14.500  0.00  0.00     0.000 C
ATOM     87  O5  BDP A1176       4.810 -14.577   15.390  0.00  0.00     0.000 O
ATOM     88   O  BDP A1176       6.570 -13.340   18.260  0.00  0.00     0.000 O
ATOM     90  HD  BDP A1176       7.070 -12.840   18.760  0.00  0.00     0.000 HD
ATOM     90   O  BDP A1176       8.670 -13.862   16.210  0.00  0.00     0.000 O
ATOM     92  HD  BDP A1176       9.170 -13.362   16.710  0.00  0.00     0.000 HD
ATOM     92   O  BDP A1176       5.090 -15.227   12.770  0.00  0.00     0.000 OA
ATOM     93   O  BDP A1176       4.340 -13.165   12.430  0.00  0.00     0.000 OA
ATOM     94   C  BDP A1176       4.900 -14.045   13.110  0.00  0.00     0.000 C
BRANCH 82 95
ATOM     95  O3  NAG A1175       4.280 -15.199   17.540  0.00  0.00     0.000 O
BRANCH 95 98
ATOM     96  C1  NAG A1175       1.170 -15.276   19.640  0.00  0.00     0.000 C
ATOM     97  C2  NAG A1175       2.660 -15.238   19.310  0.00  0.00     0.000 C
ATOM     98  C3  NAG A1175       2.920 -14.888   17.830  0.00  0.00     0.000 C
ATOM     99  C4  NAG A1175       1.950 -15.587   16.860  0.00  0.00     0.000 C
ATOM    100  C5  NAG A1175       0.530 -15.710   17.420  0.00  0.00     0.000 C
ATOM    101  O5  NAG A1175       0.520 -16.183   18.760  0.00  0.00     0.000 O
ATOM    102   O  NAG A1175       0.970 -15.675   20.980  0.00  0.00     0.000 OA
ATOM    103   N  NAG A1175       3.380 -14.297   20.160  0.00  0.00     0.000 N
ATOM    105  HD  NAG A1175       3.880 -13.797   20.660  0.00  0.00     0.000 HD
ATOM    105   O  NAG A1175       4.910 -15.561   21.230  0.00  0.00     0.000 OA
ATOM    106   C  NAG A1175       4.030 -14.693   21.260  0.00  0.00     0.000 C
ATOM    107   C  NAG A1175       3.650 -14.006   22.540  0.00  0.00     0.000 C
ATOM    108   O  NAG A1175       1.850 -14.890   15.630  0.00  0.00     0.000 O
ATOM    110  HD  NAG A1175       2.350 -14.390   16.130  0.00  0.00     0.000 HD
ATOM    110   O  NAG A1175      -1.640 -16.533   16.940  0.00  0.00     0.000 O
ATOM    112  HD  NAG A1175      -1.140 -16.033   17.440  0.00  0.00     0.000 HD
ATOM    112   C  NAG A1175      -0.290 -16.636   16.540  0.00  0.00     0.000 C
ENDBRANCH 95 98
ENDBRANCH 82 95
ENDBRANCH 81 85
ENDBRANCH 65 81
ENDBRANCH 64 67
ENDBRANCH 51 64
ENDBRANCH 50 54
ENDBRANCH 34 50
ENDBRANCH 33 36
ENDBRANCH 20 33
ENDBRANCH 19 23
ENDBRANCH 1 19
TORSDOF 12