ROOT
ATOM      1  C1  H1S A  68     -21.240  -3.115    8.880  0.00  0.00     0.000 C
ATOM      2  C2  H1S A  68     -20.530  -4.003    7.810  0.00  0.00     0.000 C
ATOM      3  C3  H1S A  68     -21.070  -5.468    8.030  0.00  0.00     0.000 C
ATOM      4  C4  H1S A  68     -21.170  -5.742    9.570  0.00  0.00     0.000 C
ATOM      5  C5  H1S A  68     -20.910  -4.739   10.540  0.00  0.00     0.000 C
ATOM      6  O5  H1S A  68     -20.560  -3.475   10.120  0.00  0.00     0.000 O
ATOM      7  C4  H1S A  68     -20.720  -0.593    9.080  0.00  0.00     0.000 C
ATOM      8  C5  H1S A  68     -21.250   0.615    8.230  0.00  0.00     0.000 C
ATOM      9  C3  H1S A  68     -19.160  -0.767    9.160  0.00  0.00     0.000 C
ATOM     10  O5  H1S A  68     -20.470   1.845    8.490  0.00  0.00     0.000 O
ATOM     11   C  H1S A  68     -22.800   0.742    8.430  0.00  0.00     0.000 C
ATOM     12  C2  H1S A  68     -18.420   0.542    9.080  0.00  0.00     0.000 C
ATOM     13   O  H1S A  68     -18.840  -1.276   10.450  0.00  0.00     0.000 O
ATOM     15  HD  H1S A  68     -18.340  -0.776   10.950  0.00  0.00     0.000 HD
ATOM     15  C1  H1S A  68     -19.470   1.555    9.560  0.00  0.00     0.000 C
ATOM     16   O  H1S A  68     -23.590   0.400    7.220  0.00  0.00     0.000 O
ATOM     17   N  H1S A  68     -17.860   0.805    7.710  0.00  0.00     0.000 N
ATOM     19  HD  H1S A  68     -17.360   1.305    8.210  0.00  0.00     0.000 HD
ATOM     19   O  H1S A  68     -18.760   2.611   10.240  0.00  0.00     0.000 OA
ATOM     20   S  H1S A  68     -24.910   1.051    6.960  0.00  0.00     0.000 S
ATOM     21   S  H1S A  68     -16.480   1.780    7.830  0.00  0.00     0.000 S
ATOM     22   O  H1S A  68     -25.800   0.937    8.200  0.00  0.00     0.000 OA
ATOM     23   O  H1S A  68     -25.610   0.415    5.790  0.00  0.00     0.000 OA
ATOM     24   O  H1S A  68     -24.720   2.514    6.620  0.00  0.00     0.000 OA
ATOM     25   O  H1S A  68     -16.980   3.200    7.900  0.00  0.00     0.000 OA
ATOM     26   O  H1S A  68     -15.490   1.672    6.700  0.00  0.00     0.000 OA
ATOM     27   O  H1S A  68     -15.790   1.366    9.110  0.00  0.00     0.000 OA
ATOM     28   O  H1S A  68     -18.470  -2.189    6.750  0.00  0.00     0.000 OA
ATOM     29   O  H1S A  68     -19.480  -2.377    4.470  0.00  0.00     0.000 OA
ATOM     30   O  H1S A  68     -20.540  -1.003    6.110  0.00  0.00     0.000 OA
ATOM     31   O  H1S A  68     -20.610  -3.464    6.420  0.00  0.00     0.000 O
ATOM     32   S  H1S A  68     -19.760  -2.288    5.960  0.00  0.00     0.000 S
ATOM     33   O  H1S A  68     -20.260  -6.518    7.400  0.00  0.00     0.000 O
ATOM     35  HD  H1S A  68     -19.760  -6.018    7.900  0.00  0.00     0.000 HD
ATOM     35   O  H1S A  68     -20.760  -4.057   12.830  0.00  0.00     0.000 OA
ATOM     36   O  H1S A  68     -21.330  -6.145   12.520  0.00  0.00     0.000 OA
ATOM     37   C  H1S A  68     -21.010  -5.011   12.080  0.00  0.00     0.000 C
ENDROOT
BRANCH 59 38
ATOM     38  O4  H1S A  68     -21.440  -1.708    8.480  0.00  0.00     0.000 O
BRANCH 38 42
ATOM     39  C1  H1S A  68     -19.470   1.555    9.560  0.00  0.00     0.000 C
ATOM     40  C2  H1S A  68     -18.420   0.542    9.080  0.00  0.00     0.000 C
ATOM     41  C3  H1S A  68     -19.160  -0.767    9.160  0.00  0.00     0.000 C
ATOM     42  C4  H1S A  68     -20.720  -0.593    9.080  0.00  0.00     0.000 C
ATOM     43  C5  H1S A  68     -21.250   0.615    8.230  0.00  0.00     0.000 C
ATOM     44  O5  H1S A  68     -20.470   1.845    8.490  0.00  0.00     0.000 O
ATOM     45   O  H1S A  68     -18.760   2.611   10.240  0.00  0.00     0.000 OA
ATOM     46   N  H1S A  68     -17.860   0.805    7.710  0.00  0.00     0.000 N
ATOM     48  HD  H1S A  68     -17.360   1.305    8.210  0.00  0.00     0.000 HD
ATOM     48   S  H1S A  68     -16.480   1.780    7.830  0.00  0.00     0.000 S
ATOM     49   O  H1S A  68     -16.980   3.200    7.900  0.00  0.00     0.000 OA
ATOM     50   O  H1S A  68     -15.490   1.672    6.700  0.00  0.00     0.000 OA
ATOM     51   O  H1S A  68     -15.790   1.366    9.110  0.00  0.00     0.000 OA
ATOM     52   O  H1S A  68     -18.840  -1.276   10.450  0.00  0.00     0.000 O
ATOM     54  HD  H1S A  68     -18.340  -0.776   10.950  0.00  0.00     0.000 HD
ATOM     54   O  H1S A  68     -18.470  -2.189    6.750  0.00  0.00     0.000 OA
ATOM     55   O  H1S A  68     -19.480  -2.377    4.470  0.00  0.00     0.000 OA
ATOM     56   O  H1S A  68     -20.540  -1.003    6.110  0.00  0.00     0.000 OA
ATOM     57   O  H1S A  68     -21.330  -6.145   12.520  0.00  0.00     0.000 OA
ATOM     58   O  H1S A  68     -20.760  -4.057   12.830  0.00  0.00     0.000 OA
ATOM     59  C1  H1S A  68     -21.240  -3.115    8.880  0.00  0.00     0.000 C
ATOM     60  C2  H1S A  68     -20.530  -4.003    7.810  0.00  0.00     0.000 C
ATOM     61  O5  H1S A  68     -20.560  -3.475   10.120  0.00  0.00     0.000 O
ATOM     62  C3  H1S A  68     -21.070  -5.468    8.030  0.00  0.00     0.000 C
ATOM     63   O  H1S A  68     -20.610  -3.464    6.420  0.00  0.00     0.000 O
ATOM     64  C5  H1S A  68     -20.910  -4.739   10.540  0.00  0.00     0.000 C
ATOM     65  C4  H1S A  68     -21.170  -5.742    9.570  0.00  0.00     0.000 C
ATOM     66   O  H1S A  68     -20.260  -6.518    7.400  0.00  0.00     0.000 O
ATOM     68  HD  H1S A  68     -19.760  -6.018    7.900  0.00  0.00     0.000 HD
ATOM     68   S  H1S A  68     -19.760  -2.288    5.960  0.00  0.00     0.000 S
ATOM     69   C  H1S A  68     -21.010  -5.011   12.080  0.00  0.00     0.000 C
ATOM     70   C  H1S A  68     -22.800   0.742    8.430  0.00  0.00     0.000 C
ATOM     71   O  H1S A  68     -23.590   0.400    7.220  0.00  0.00     0.000 O
ATOM     72   S  H1S A  68     -24.910   1.051    6.960  0.00  0.00     0.000 S
ATOM     73   O  H1S A  68     -25.800   0.937    8.200  0.00  0.00     0.000 OA
ATOM     74   O  H1S A  68     -25.610   0.415    5.790  0.00  0.00     0.000 OA
ATOM     75   O  H1S A  68     -24.720   2.514    6.620  0.00  0.00     0.000 OA
ENDBRANCH 38 42
ENDBRANCH 59 38
TORSDOF 2