ROOT
ATOM      1  C1  H1S A  69       4.880  -2.284    9.900  0.00  0.00     0.000 C
ATOM      2  C2  H1S A  69       5.600  -2.890    8.680  0.00  0.00     0.000 C
ATOM      3  C3  H1S A  69       6.670  -3.889    9.190  0.00  0.00     0.000 C
ATOM      4  C4  H1S A  69       6.110  -4.761   10.360  0.00  0.00     0.000 C
ATOM      5  C5  H1S A  69       4.920  -4.405   11.040  0.00  0.00     0.000 C
ATOM      6  O5  H1S A  69       4.190  -3.274   10.730  0.00  0.00     0.000 O
ATOM      7   O  H1S A  69       1.080   0.643    9.280  0.00  0.00     0.000 OA
ATOM      8   O  H1S A  69       3.090  -0.394    8.440  0.00  0.00     0.000 OA
ATOM      9   O  H1S A  69       2.800   1.967    8.380  0.00  0.00     0.000 OA
ATOM     10  C4  H1S A  69       5.860  -0.551   11.460  0.00  0.00     0.000 C
ATOM     11  C5  H1S A  69       4.880  -0.511   12.690  0.00  0.00     0.000 C
ATOM     12  C3  H1S A  69       5.600   0.436   10.310  0.00  0.00     0.000 C
ATOM     13  O5  H1S A  69       4.650   0.871   13.200  0.00  0.00     0.000 O
ATOM     14   C  H1S A  69       5.350  -1.412   13.850  0.00  0.00     0.000 C
ATOM     15  C2  H1S A  69       4.560   1.464   10.750  0.00  0.00     0.000 C
ATOM     16   O  H1S A  69       6.840   1.022    9.810  0.00  0.00     0.000 O
ATOM     18  HD  H1S A  69       7.340   1.522   10.310  0.00  0.00     0.000 HD
ATOM     18  C1  H1S A  69       4.930   1.949   12.190  0.00  0.00     0.000 C
ATOM     19   O  H1S A  69       4.490  -1.218   15.030  0.00  0.00     0.000 O
ATOM     20   N  H1S A  69       3.220   0.826   10.690  0.00  0.00     0.000 N
ATOM     22  HD  H1S A  69       3.720   1.326   11.190  0.00  0.00     0.000 HD
ATOM     22   O  H1S A  69       4.530   3.398   12.500  0.00  0.00     0.000 OA
ATOM     23   S  H1S A  69       4.840  -0.462   16.240  0.00  0.00     0.000 S
ATOM     24   S  H1S A  69       2.550   0.780    9.200  0.00  0.00     0.000 S
ATOM     25   O  H1S A  69       3.860   0.646   16.500  0.00  0.00     0.000 OA
ATOM     26   O  H1S A  69       6.210   0.169   16.060  0.00  0.00     0.000 OA
ATOM     27   O  H1S A  69       4.800  -1.365   17.450  0.00  0.00     0.000 OA
ATOM     28   O  H1S A  69       5.550  -3.015    5.600  0.00  0.00     0.000 OA
ATOM     29   O  H1S A  69       5.690  -5.288    6.440  0.00  0.00     0.000 OA
ATOM     30   O  H1S A  69       3.480  -4.216    6.020  0.00  0.00     0.000 OA
ATOM     31   O  H1S A  69       4.650  -3.561    7.820  0.00  0.00     0.000 O
ATOM     32   S  H1S A  69       4.870  -4.035    6.470  0.00  0.00     0.000 S
ATOM     33   O  H1S A  69       7.840  -3.147    9.540  0.00  0.00     0.000 O
ATOM     35  HD  H1S A  69       8.340  -2.647   10.040  0.00  0.00     0.000 HD
ATOM     35   O  H1S A  69       3.320  -4.931   12.760  0.00  0.00     0.000 OA
ATOM     36   O  H1S A  69       5.010  -6.341   12.440  0.00  0.00     0.000 OA
ATOM     37   C  H1S A  69       4.380  -5.297   12.170  0.00  0.00     0.000 C
ENDROOT
BRANCH 59 38
ATOM     38  O4  H1S A  69       5.930  -1.811   10.790  0.00  0.00     0.000 O
BRANCH 38 42
ATOM     39  C1  H1S A  69       4.930   1.949   12.190  0.00  0.00     0.000 C
ATOM     40  C2  H1S A  69       4.560   1.464   10.750  0.00  0.00     0.000 C
ATOM     41  C3  H1S A  69       5.600   0.436   10.310  0.00  0.00     0.000 C
ATOM     42  C4  H1S A  69       5.860  -0.551   11.460  0.00  0.00     0.000 C
ATOM     43  C5  H1S A  69       4.880  -0.511   12.690  0.00  0.00     0.000 C
ATOM     44  O5  H1S A  69       4.650   0.871   13.200  0.00  0.00     0.000 O
ATOM     45   O  H1S A  69       4.530   3.398   12.500  0.00  0.00     0.000 OA
ATOM     46   O  H1S A  69       1.080   0.643    9.280  0.00  0.00     0.000 OA
ATOM     47   O  H1S A  69       3.090  -0.394    8.440  0.00  0.00     0.000 OA
ATOM     48   O  H1S A  69       2.800   1.967    8.380  0.00  0.00     0.000 OA
ATOM     49   N  H1S A  69       3.220   0.826   10.690  0.00  0.00     0.000 N
ATOM     51  HD  H1S A  69       3.720   1.326   11.190  0.00  0.00     0.000 HD
ATOM     51   S  H1S A  69       2.550   0.780    9.200  0.00  0.00     0.000 S
ATOM     52   O  H1S A  69       6.840   1.022    9.810  0.00  0.00     0.000 O
ATOM     54  HD  H1S A  69       7.340   1.522   10.310  0.00  0.00     0.000 HD
ATOM     54   O  H1S A  69       5.550  -3.015    5.600  0.00  0.00     0.000 OA
ATOM     55   O  H1S A  69       5.690  -5.288    6.440  0.00  0.00     0.000 OA
ATOM     56   O  H1S A  69       3.480  -4.216    6.020  0.00  0.00     0.000 OA
ATOM     57   O  H1S A  69       5.010  -6.341   12.440  0.00  0.00     0.000 OA
ATOM     58   O  H1S A  69       3.320  -4.931   12.760  0.00  0.00     0.000 OA
ATOM     59  C1  H1S A  69       4.880  -2.284    9.900  0.00  0.00     0.000 C
ATOM     60  C2  H1S A  69       5.600  -2.890    8.680  0.00  0.00     0.000 C
ATOM     61  O5  H1S A  69       4.190  -3.274   10.730  0.00  0.00     0.000 O
ATOM     62  C3  H1S A  69       6.670  -3.889    9.190  0.00  0.00     0.000 C
ATOM     63   O  H1S A  69       4.650  -3.561    7.820  0.00  0.00     0.000 O
ATOM     64  C5  H1S A  69       4.920  -4.405   11.040  0.00  0.00     0.000 C
ATOM     65  C4  H1S A  69       6.110  -4.761   10.360  0.00  0.00     0.000 C
ATOM     66   O  H1S A  69       7.840  -3.147    9.540  0.00  0.00     0.000 O
ATOM     68  HD  H1S A  69       8.340  -2.647   10.040  0.00  0.00     0.000 HD
ATOM     68   S  H1S A  69       4.870  -4.035    6.470  0.00  0.00     0.000 S
ATOM     69   C  H1S A  69       4.380  -5.297   12.170  0.00  0.00     0.000 C
ATOM     70   C  H1S A  69       5.350  -1.412   13.850  0.00  0.00     0.000 C
ATOM     71   O  H1S A  69       4.490  -1.218   15.030  0.00  0.00     0.000 O
ATOM     72   S  H1S A  69       4.840  -0.462   16.240  0.00  0.00     0.000 S
ATOM     73   O  H1S A  69       3.860   0.646   16.500  0.00  0.00     0.000 OA
ATOM     74   O  H1S A  69       6.210   0.169   16.060  0.00  0.00     0.000 OA
ATOM     75   O  H1S A  69       4.800  -1.365   17.450  0.00  0.00     0.000 OA
ENDBRANCH 38 42
ENDBRANCH 59 38
TORSDOF 2