ROOT
ATOM      1  C1  GC4 A1769      27.040  19.019   29.780  0.00  0.00     0.000 C
ATOM      2  C2  GC4 A1769      26.300  17.670   29.780  0.00  0.00     0.000 C
ATOM      3  C3  GC4 A1769      25.310  17.668   28.610  0.00  0.00     0.000 C
ATOM      4  C4  GC4 A1769      24.540  18.972   28.420  0.00  0.00     0.000 C
ATOM      5  C5  GC4 A1769      25.280  20.259   28.790  0.00  0.00     0.000 C
ATOM      6  O5  GC4 A1769      26.080  20.101   29.950  0.00  0.00     0.000 O
ATOM      7   O  GC4 A1769      27.210  16.571   29.710  0.00  0.00     0.000 O
ATOM      9  HD  GC4 A1769      27.710  17.071   30.210  0.00  0.00     0.000 HD
ATOM      9   O  GC4 A1769      24.340  16.627   28.810  0.00  0.00     0.000 O
ATOM     11  HD  GC4 A1769      24.840  17.127   29.310  0.00  0.00     0.000 HD
ATOM     11   C  GC4 A1769      24.440  21.502   28.860  0.00  0.00     0.000 C
ATOM     12   O  GC4 A1769      23.630  21.748   27.960  0.00  0.00     0.000 OA
ATOM     13   O  GC4 A1769      24.630  22.344   29.770  0.00  0.00     0.000 OA
ENDROOT
BRANCH 1 14
ATOM     14  O3  NAG A1770      28.020  19.116   30.740  0.00  0.00     0.000 O
BRANCH 14 17
ATOM     15  C1  NAG A1770      31.320  20.660   29.820  0.00  0.00     0.000 C
ATOM     16  C2  NAG A1770      30.320  19.538   29.920  0.00  0.00     0.000 C
ATOM     17  C3  NAG A1770      29.040  20.080   30.560  0.00  0.00     0.000 C
ATOM     18  C4  NAG A1770      29.310  20.834   31.870  0.00  0.00     0.000 C
ATOM     19  C5  NAG A1770      30.350  21.889   31.600  0.00  0.00     0.000 C
ATOM     20  O5  NAG A1770      31.530  21.339   31.080  0.00  0.00     0.000 O
ATOM     21   O  NAG A1770      32.560  20.184   29.460  0.00  0.00     0.000 OA
ATOM     22   O  NAG A1770      30.610  16.814   29.620  0.00  0.00     0.000 OA
ATOM     23   C  NAG A1770      30.190  17.503   28.640  0.00  0.00     0.000 C
ATOM     24   C  NAG A1770      29.830  16.945   27.250  0.00  0.00     0.000 C
ATOM     25   N  NAG A1770      30.050  18.800   28.720  0.00  0.00     0.000 N
ATOM     27  HD  NAG A1770      30.550  19.300   29.220  0.00  0.00     0.000 HD
ATOM     27   O  NAG A1770      28.150  21.455   32.360  0.00  0.00     0.000 O
ATOM     29  HD  NAG A1770      28.650  21.955   32.860  0.00  0.00     0.000 HD
ATOM     29   C  NAG A1770      30.700  22.740   32.850  0.00  0.00     0.000 C
ATOM     30   O  NAG A1770      31.190  21.824   33.780  0.00  0.00     0.000 O
ATOM     32  HD  NAG A1770      31.690  22.324   34.280  0.00  0.00     0.000 HD
ENDBRANCH 14 17
ENDBRANCH 1 14
TORSDOF 2