ROOT
ATOM      1  C1  L42 A1784      27.410  19.177   29.820  0.00  0.00     0.000 C
ATOM      2  C2  L42 A1784      26.580  17.865   29.760  0.00  0.00     0.000 C
ATOM      3  C3  L42 A1784      25.630  17.939   28.590  0.00  0.00     0.000 C
ATOM      4  C4  L42 A1784      24.980  19.334   28.560  0.00  0.00     0.000 C
ATOM      5  C5  L42 A1784      25.480  20.389   29.340  0.00  0.00     0.000 C
ATOM      6  O5  L42 A1784      26.530  20.239   30.190  0.00  0.00     0.000 O
ATOM      7   O  L42 A1784      33.030  20.536   29.830  0.00  0.00     0.000 OA
ATOM      8  C1  L42 A1784      31.710  20.851   30.210  0.00  0.00     0.000 C
ATOM      9  C2  L42 A1784      30.780  19.608   30.260  0.00  0.00     0.000 C
ATOM     10   N  L42 A1784      30.520  18.950   28.980  0.00  0.00     0.000 N
ATOM     12  HD  L42 A1784      31.020  19.450   29.480  0.00  0.00     0.000 HD
ATOM     12   C  L42 A1784      30.590  17.614   28.850  0.00  0.00     0.000 C
ATOM     13   C  L42 A1784      30.100  17.097   27.500  0.00  0.00     0.000 C
ATOM     14   O  L42 A1784      31.030  16.825   29.700  0.00  0.00     0.000 OA
ATOM     15  O5  L42 A1784      31.660  21.606   31.520  0.00  0.00     0.000 O
ATOM     16  C5  L42 A1784      30.280  21.979   31.850  0.00  0.00     0.000 C
ATOM     17   C  L42 A1784      29.870  22.856   33.110  0.00  0.00     0.000 C
ATOM     18   O  L42 A1784      31.070  22.996   33.620  0.00  0.00     0.000 O
ATOM     20  HD  L42 A1784      31.570  23.496   34.120  0.00  0.00     0.000 HD
ATOM     20  C4  L42 A1784      29.400  20.732   32.030  0.00  0.00     0.000 C
ATOM     21   O  L42 A1784      29.950  19.899   33.110  0.00  0.00     0.000 O
ATOM     22   S  L42 A1784      29.000  19.620   34.240  0.00  0.00     0.000 S
ATOM     23   O  L42 A1784      29.700  18.677   35.070  0.00  0.00     0.000 OA
ATOM     24   O  L42 A1784      27.640  19.110   33.770  0.00  0.00     0.000 OA
ATOM     25   O  L42 A1784      28.750  20.825   35.070  0.00  0.00     0.000 OA
ATOM     26  C3  L42 A1784      29.350  20.074   30.690  0.00  0.00     0.000 C
ATOM     27   O  L42 A1784      27.370  16.703   29.640  0.00  0.00     0.000 O
ATOM     29  HD  L42 A1784      27.870  17.203   30.140  0.00  0.00     0.000 HD
ATOM     29   O  L42 A1784      24.640  16.967   28.830  0.00  0.00     0.000 O
ATOM     31  HD  L42 A1784      25.140  17.467   29.330  0.00  0.00     0.000 HD
ATOM     31   C  L42 A1784      24.880  21.789   29.300  0.00  0.00     0.000 C
ATOM     32   O  L42 A1784      25.340  22.582   30.170  0.00  0.00     0.000 OA
ATOM     33   O  L42 A1784      23.940  22.034   28.500  0.00  0.00     0.000 OA
ENDROOT
BRANCH 47 34
ATOM     34  O3  L42 A1784      28.350  19.119   30.850  0.00  0.00     0.000 O
BRANCH 34 37
ATOM     35  C1  L42 A1784      31.710  20.851   30.210  0.00  0.00     0.000 C
ATOM     36  C2  L42 A1784      30.780  19.608   30.260  0.00  0.00     0.000 C
ATOM     37  C3  L42 A1784      29.350  20.074   30.690  0.00  0.00     0.000 C
ATOM     38  C4  L42 A1784      29.400  20.732   32.030  0.00  0.00     0.000 C
ATOM     39  C5  L42 A1784      30.280  21.979   31.850  0.00  0.00     0.000 C
ATOM     40  O5  L42 A1784      31.660  21.606   31.520  0.00  0.00     0.000 O
ATOM     41   O  L42 A1784      33.030  20.536   29.830  0.00  0.00     0.000 OA
ATOM     42   N  L42 A1784      30.520  18.950   28.980  0.00  0.00     0.000 N
ATOM     44  HD  L42 A1784      31.020  19.450   29.480  0.00  0.00     0.000 HD
ATOM     44   C  L42 A1784      30.590  17.614   28.850  0.00  0.00     0.000 C
ATOM     45   C  L42 A1784      30.100  17.097   27.500  0.00  0.00     0.000 C
ATOM     46   O  L42 A1784      31.030  16.825   29.700  0.00  0.00     0.000 OA
ATOM     47  C1  L42 A1784      27.410  19.177   29.820  0.00  0.00     0.000 C
ATOM     48  O5  L42 A1784      26.530  20.239   30.190  0.00  0.00     0.000 O
ATOM     49  C5  L42 A1784      25.480  20.389   29.340  0.00  0.00     0.000 C
ATOM     50   C  L42 A1784      24.880  21.789   29.300  0.00  0.00     0.000 C
ATOM     51   O  L42 A1784      25.340  22.582   30.170  0.00  0.00     0.000 OA
ATOM     52   O  L42 A1784      23.940  22.034   28.500  0.00  0.00     0.000 OA
ATOM     53  C4  L42 A1784      24.980  19.334   28.560  0.00  0.00     0.000 C
ATOM     54  C3  L42 A1784      25.630  17.939   28.590  0.00  0.00     0.000 C
ATOM     55   O  L42 A1784      24.640  16.967   28.830  0.00  0.00     0.000 O
ATOM     57  HD  L42 A1784      25.140  17.467   29.330  0.00  0.00     0.000 HD
ATOM     57  C2  L42 A1784      26.580  17.865   29.760  0.00  0.00     0.000 C
ATOM     58   O  L42 A1784      27.370  16.703   29.640  0.00  0.00     0.000 O
ATOM     60  HD  L42 A1784      27.870  17.203   30.140  0.00  0.00     0.000 HD
ATOM     60   O  L42 A1784      29.950  19.899   33.110  0.00  0.00     0.000 O
ATOM     61   S  L42 A1784      29.000  19.620   34.240  0.00  0.00     0.000 S
ATOM     62   O  L42 A1784      29.700  18.677   35.070  0.00  0.00     0.000 OA
ATOM     63   O  L42 A1784      27.640  19.110   33.770  0.00  0.00     0.000 OA
ATOM     64   O  L42 A1784      28.750  20.825   35.070  0.00  0.00     0.000 OA
ATOM     65   C  L42 A1784      29.870  22.856   33.110  0.00  0.00     0.000 C
ATOM     66   O  L42 A1784      31.070  22.996   33.620  0.00  0.00     0.000 O
ATOM     68  HD  L42 A1784      31.570  23.496   34.120  0.00  0.00     0.000 HD
ENDBRANCH 34 37
ENDBRANCH 47 34
TORSDOF 2