ROOT
ATOM      1  C1  IDU F1218      21.400 -12.569   -3.540  0.00  0.00     0.000 C
ATOM      2  C2  IDU F1218      19.890 -12.839   -3.500  0.00  0.00     0.000 C
ATOM      3  C3  IDU F1218      19.480 -14.304   -3.720  0.00  0.00     0.000 C
ATOM      4  C4  IDU F1218      20.490 -15.319   -3.170  0.00  0.00     0.000 C
ATOM      5  C5  IDU F1218      21.930 -14.929   -3.510  0.00  0.00     0.000 C
ATOM      6  O5  IDU F1218      22.200 -13.627   -2.990  0.00  0.00     0.000 O
ATOM      7   O  IDU F1218      19.390 -12.388   -2.240  0.00  0.00     0.000 O
ATOM      8   S  IDU F1218      18.390 -11.090   -2.170  0.00  0.00     0.000 S
ATOM      9   O  IDU F1218      18.610 -10.368   -0.890  0.00  0.00     0.000 OA
ATOM     10   O  IDU F1218      16.990 -11.559   -2.250  0.00  0.00     0.000 OA
ATOM     11   O  IDU F1218      18.670 -10.170   -3.290  0.00  0.00     0.000 OA
ATOM     12   O  IDU F1218      19.260 -14.543   -5.110  0.00  0.00     0.000 O
ATOM     14  HD  IDU F1218      19.760 -14.043   -4.610  0.00  0.00     0.000 HD
ATOM     14   O  IDU F1218      23.140 -15.828   -1.670  0.00  0.00     0.000 OA
ATOM     15   C  IDU F1218      22.880 -15.915   -2.910  0.00  0.00     0.000 C
ATOM     16   O  IDU F1218      23.390 -16.788   -3.660  0.00  0.00     0.000 OA
ENDROOT
BRANCH 1 17
ATOM     17  O4  SGN F1219      21.790 -12.155   -4.870  0.00  0.00     0.000 O
BRANCH 17 21
ATOM     18  C1  SGN F1219      24.750  -9.614   -6.260  0.00  0.00     0.000 C
ATOM     19  C2  SGN F1219      25.220 -10.621   -5.190  0.00  0.00     0.000 C
ATOM     20  C3  SGN F1219      24.150 -11.678   -4.870  0.00  0.00     0.000 C
ATOM     21  C4  SGN F1219      22.730 -11.104   -4.750  0.00  0.00     0.000 C
ATOM     22  C5  SGN F1219      22.430 -10.044   -5.820  0.00  0.00     0.000 C
ATOM     23  O5  SGN F1219      23.480  -9.089   -5.900  0.00  0.00     0.000 O
ATOM     24   O  SGN F1219      24.700 -10.205   -7.540  0.00  0.00     0.000 OA
ATOM     25   S  SGN F1219      27.860 -10.851   -4.970  0.00  0.00     0.000 S
ATOM     26   O  SGN F1219      28.890 -11.433   -5.830  0.00  0.00     0.000 OA
ATOM     27   O  SGN F1219      27.890 -11.409   -3.620  0.00  0.00     0.000 OA
ATOM     28   O  SGN F1219      27.930  -9.389   -4.960  0.00  0.00     0.000 OA
ATOM     29   N  SGN F1219      26.450 -11.263   -5.620  0.00  0.00     0.000 N
ATOM     31  HD  SGN F1219      26.950 -10.763   -5.120  0.00  0.00     0.000 HD
ATOM     31   O  SGN F1219      24.490 -12.341   -3.670  0.00  0.00     0.000 O
ATOM     33  HD  SGN F1219      24.990 -11.841   -3.170  0.00  0.00     0.000 HD
ATOM     33   O  SGN F1219      21.370  -8.004   -5.100  0.00  0.00     0.000 O
ATOM     34   S  SGN F1219      20.350  -7.249   -4.200  0.00  0.00     0.000 S
ATOM     35   O  SGN F1219      20.340  -7.886   -2.880  0.00  0.00     0.000 OA
ATOM     36   O  SGN F1219      19.050  -7.377   -4.840  0.00  0.00     0.000 OA
ATOM     37   O  SGN F1219      20.810  -5.867   -4.120  0.00  0.00     0.000 OA
ATOM     38   C  SGN F1219      21.120  -9.340   -5.490  0.00  0.00     0.000 C
ENDBRANCH 17 21
ENDBRANCH 1 17
TORSDOF 2