ROOT
ATOM      1  C1  GCD A 400      12.250  -3.495   27.030  0.00  0.00     0.000 C
ATOM      2  C2  GCD A 400      11.010  -4.147   26.440  0.00  0.00     0.000 C
ATOM      3  C3  GCD A 400      10.940  -3.845   24.950  0.00  0.00     0.000 C
ATOM      4  C4  GCD A 400      10.970  -2.333   24.810  0.00  0.00     0.000 C
ATOM      5  C5  GCD A 400      11.590  -1.549   25.780  0.00  0.00     0.000 C
ATOM      6  O5  GCD A 400      12.260  -2.069   26.850  0.00  0.00     0.000 O
ATOM      7   O  GCD A 400      11.080  -5.553   26.650  0.00  0.00     0.000 O
ATOM      9  HD  GCD A 400      11.580  -5.053   27.150  0.00  0.00     0.000 HD
ATOM      9   O  GCD A 400       9.710  -4.341   24.410  0.00  0.00     0.000 O
ATOM     11  HD  GCD A 400      10.210  -3.841   24.910  0.00  0.00     0.000 HD
ATOM     11   C  GCD A 400      11.550  -0.043   25.620  0.00  0.00     0.000 C
ATOM     12   O  GCD A 400      12.150   0.635   26.470  0.00  0.00     0.000 OA
ATOM     13   O  GCD A 400      10.960   0.431   24.620  0.00  0.00     0.000 OA
ENDROOT
BRANCH 1 14
ATOM     14  O3  NG6 A 399      12.220  -3.736   28.420  0.00  0.00     0.000 O
BRANCH 14 17
ATOM     15  C1  NG6 A 399      14.750  -5.057   30.850  0.00  0.00     0.000 C
ATOM     16  C2  NG6 A 399      13.490  -5.048   29.970  0.00  0.00     0.000 C
ATOM     17  C3  NG6 A 399      13.540  -3.923   28.920  0.00  0.00     0.000 C
ATOM     18  C4  NG6 A 399      14.020  -2.601   29.520  0.00  0.00     0.000 C
ATOM     19  C5  NG6 A 399      15.300  -2.829   30.310  0.00  0.00     0.000 C
ATOM     20  O5  NG6 A 399      15.040  -3.749   31.370  0.00  0.00     0.000 O
ATOM     21   O  NG6 A 399      14.520  -5.908   31.990  0.00  0.00     0.000 OA
ATOM     22   N  NG6 A 399      13.350  -6.347   29.280  0.00  0.00     0.000 N
ATOM     24  HD  NG6 A 399      13.850  -5.847   29.780  0.00  0.00     0.000 HD
ATOM     24   O  NG6 A 399      14.340  -8.095   28.240  0.00  0.00     0.000 OA
ATOM     25   C  NG6 A 399      14.410  -7.015   28.830  0.00  0.00     0.000 C
ATOM     26   C  NG6 A 399      15.760  -6.333   29.090  0.00  0.00     0.000 C
ATOM     27   O  NG6 A 399      13.020  -2.053   30.380  0.00  0.00     0.000 O
ATOM     29  HD  NG6 A 399      13.520  -1.553   30.880  0.00  0.00     0.000 HD
ATOM     29   C  NG6 A 399      15.750  -1.539   30.970  0.00  0.00     0.000 C
ATOM     30   O  NG6 A 399      16.920  -1.788   31.740  0.00  0.00     0.000 O
ATOM     31   S  NG6 A 399      17.240  -0.932   32.840  0.00  0.00     0.000 S
ATOM     32   O  NG6 A 399      16.000  -0.209   33.300  0.00  0.00     0.000 OA
ATOM     33   O  NG6 A 399      18.270   0.087   32.420  0.00  0.00     0.000 OA
ATOM     34   O  NG6 A 399      17.770  -1.764   33.970  0.00  0.00     0.000 OA
ENDBRANCH 14 17
ENDBRANCH 1 14
TORSDOF 2