ROOT
ATOM      1  C1  IDS H   2     -35.380  28.800  -31.370  0.00  0.00     0.000 C
ATOM      2  C2  IDS H   2     -35.310  30.284  -31.050  0.00  0.00     0.000 C
ATOM      3  C3  IDS H   2     -33.990  30.580  -30.350  0.00  0.00     0.000 C
ATOM      4  C4  IDS H   2     -33.990  29.876  -29.000  0.00  0.00     0.000 C
ATOM      5  C5  IDS H   2     -34.980  28.724  -29.040  0.00  0.00     0.000 C
ATOM      6  O5  IDS H   2     -34.840  28.022  -30.290  0.00  0.00     0.000 O
ATOM      7   O  IDS H   2     -35.430  31.049  -32.260  0.00  0.00     0.000 O
ATOM      8   S  IDS H   2     -36.720  31.520  -32.670  0.00  0.00     0.000 S
ATOM      9   O  IDS H   2     -36.560  32.483  -33.850  0.00  0.00     0.000 OA
ATOM     10   O  IDS H   2     -37.590  30.334  -33.100  0.00  0.00     0.000 OA
ATOM     11   O  IDS H   2     -37.400  32.248  -31.510  0.00  0.00     0.000 OA
ATOM     12   O  IDS H   2     -33.870  31.996  -30.150  0.00  0.00     0.000 O
ATOM     14  HD  IDS H   2     -33.370  32.496  -29.650  0.00  0.00     0.000 HD
ATOM     14   O  IDS H   2     -33.850  26.872  -28.090  0.00  0.00     0.000 OA
ATOM     15   O  IDS H   2     -35.310  27.972  -26.810  0.00  0.00     0.000 OA
ATOM     16   C  IDS H   2     -34.700  27.768  -27.890  0.00  0.00     0.000 C
ENDROOT
BRANCH 1 17
ATOM     17  O4  IDS H   2     -36.740  28.449  -31.640  0.00  0.00     0.000 O
BRANCH 17 21
ATOM     18  C1  SGN H   1     -38.490  25.158  -33.440  0.00  0.00     0.000 C
ATOM     19  C2  SGN H   1     -38.090  24.971  -31.980  0.00  0.00     0.000 C
ATOM     20  C3  SGN H   1     -37.860  26.333  -31.350  0.00  0.00     0.000 C
ATOM     21  C4  SGN H   1     -36.840  27.118  -32.170  0.00  0.00     0.000 C
ATOM     22  C5  SGN H   1     -37.290  27.179  -33.620  0.00  0.00     0.000 C
ATOM     23  O5  SGN H   1     -37.440  25.850  -34.140  0.00  0.00     0.000 O
ATOM     24   O  SGN H   1     -39.700  25.922  -33.510  0.00  0.00     0.000 OA
ATOM     25   S  SGN H   1     -39.610  22.928  -32.090  0.00  0.00     0.000 S
ATOM     26   O  SGN H   1     -40.290  21.936  -31.150  0.00  0.00     0.000 OA
ATOM     27   O  SGN H   1     -40.600  23.361  -33.170  0.00  0.00     0.000 OA
ATOM     28   O  SGN H   1     -38.390  22.258  -32.730  0.00  0.00     0.000 OA
ATOM     29   N  SGN H   1     -39.120  24.230  -31.240  0.00  0.00     0.000 N
ATOM     31  HD  SGN H   1     -38.620  24.730  -30.740  0.00  0.00     0.000 HD
ATOM     31   O  SGN H   1     -37.360  26.160  -30.020  0.00  0.00     0.000 O
ATOM     33  HD  SGN H   1     -36.860  26.660  -29.520  0.00  0.00     0.000 HD
ATOM     33   O  SGN H   1     -36.700  27.989  -35.810  0.00  0.00     0.000 O
ATOM     35  HD  SGN H   1     -36.200  28.489  -35.310  0.00  0.00     0.000 HD
ATOM     35   C  SGN H   1     -36.270  27.935  -34.450  0.00  0.00     0.000 C
ENDBRANCH 17 21
ENDBRANCH 1 17
TORSDOF 2