ROOT
ATOM      1  C1  ASG A 306       6.710  36.695   50.110  0.00  0.00     0.000 C
ATOM      2  C2  ASG A 306       5.280  36.274   50.040  0.00  0.00     0.000 C
ATOM      3  C3  ASG A 306       4.390  37.230   49.060  0.00  0.00     0.000 C
ATOM      4  C4  ASG A 306       4.610  38.681   49.620  0.00  0.00     0.000 C
ATOM      5  C5  ASG A 306       6.130  39.010   49.660  0.00  0.00     0.000 C
ATOM      6  O5  ASG A 306       6.830  38.071   50.540  0.00  0.00     0.000 O
ATOM      7   O  ASG A 306       4.800  33.972   51.700  0.00  0.00     0.000 OA
ATOM      8   C  ASG A 306       4.980  33.813   50.500  0.00  0.00     0.000 C
ATOM      9   C  ASG A 306       4.970  32.454   49.850  0.00  0.00     0.000 C
ATOM     10   N  ASG A 306       5.220  34.846   49.590  0.00  0.00     0.000 N
ATOM     12  HD  ASG A 306       5.720  35.346   50.090  0.00  0.00     0.000 HD
ATOM     12   O  ASG A 306       4.110  38.724   50.960  0.00  0.00     0.000 O
ATOM     13   O  ASG A 306       3.090  40.984   50.890  0.00  0.00     0.000 OA
ATOM     14   O  ASG A 306       2.440  39.492   52.620  0.00  0.00     0.000 OA
ATOM     15   O  ASG A 306       1.720  39.117   50.390  0.00  0.00     0.000 OA
ATOM     16   S  ASG A 306       2.810  39.597   51.220  0.00  0.00     0.000 S
ATOM     17   C  ASG A 306       6.400  40.396   50.210  0.00  0.00     0.000 C
ATOM     18   O  ASG A 306       7.800  40.633   50.340  0.00  0.00     0.000 O
ATOM     20  HD  ASG A 306       8.300  41.133   50.840  0.00  0.00     0.000 HD
ENDROOT
BRANCH 1 20
ATOM     20  O4  BDP A 305       7.370  35.855   51.000  0.00  0.00     0.000 O
BRANCH 20 24
ATOM     21  C1  BDP A 305      10.940  34.930   52.970  0.00  0.00     0.000 C
ATOM     22  C2  BDP A 305      10.140  36.161   53.430  0.00  0.00     0.000 C
ATOM     23  C3  BDP A 305       8.690  36.009   53.020  0.00  0.00     0.000 C
ATOM     24  C4  BDP A 305       8.660  35.881   51.490  0.00  0.00     0.000 C
ATOM     25  C5  BDP A 305       9.440  34.609   51.070  0.00  0.00     0.000 C
ATOM     26  O5  BDP A 305      10.820  34.740   51.530  0.00  0.00     0.000 O
ATOM     27   O  BDP A 305      10.270  36.282   54.850  0.00  0.00     0.000 O
ATOM     29  HD  BDP A 305      10.770  36.782   55.350  0.00  0.00     0.000 HD
ATOM     29   O  BDP A 305       7.970  37.173   53.440  0.00  0.00     0.000 O
ATOM     31  HD  BDP A 305       8.470  37.673   53.940  0.00  0.00     0.000 HD
ATOM     31   O  BDP A 305       8.690  33.485   49.160  0.00  0.00     0.000 OA
ATOM     32   O  BDP A 305      10.230  35.123   48.930  0.00  0.00     0.000 OA
ATOM     33   C  BDP A 305       9.460  34.387   49.570  0.00  0.00     0.000 C
BRANCH 21 34
ATOM     34  O3  ASG A 304      12.300  35.081   53.310  0.00  0.00     0.000 O
BRANCH 34 37
ATOM     35  C1  ASG A 304      14.850  36.655   51.100  0.00  0.00     0.000 C
ATOM     36  C2  ASG A 304      14.110  35.513   51.800  0.00  0.00     0.000 C
ATOM     37  C3  ASG A 304      13.000  36.117   52.640  0.00  0.00     0.000 C
ATOM     38  C4  ASG A 304      13.610  37.102   53.660  0.00  0.00     0.000 C
ATOM     39  C5  ASG A 304      14.360  38.207   52.890  0.00  0.00     0.000 C
ATOM     40  O5  ASG A 304      15.400  37.612   52.050  0.00  0.00     0.000 O
ATOM     41   O  ASG A 304      15.350  33.159   50.670  0.00  0.00     0.000 OA
ATOM     42   C  ASG A 304      14.220  33.467   50.310  0.00  0.00     0.000 C
ATOM     43   C  ASG A 304      13.440  32.671   49.300  0.00  0.00     0.000 C
ATOM     44   N  ASG A 304      13.530  34.573   50.780  0.00  0.00     0.000 N
ATOM     46  HD  ASG A 304      14.030  35.073   51.280  0.00  0.00     0.000 HD
ATOM     46   O  ASG A 304      14.530  36.419   54.530  0.00  0.00     0.000 O
ATOM     47   O  ASG A 304      12.840  35.935   56.300  0.00  0.00     0.000 OA
ATOM     48   O  ASG A 304      14.260  37.802   56.590  0.00  0.00     0.000 OA
ATOM     49   O  ASG A 304      15.140  35.609   56.790  0.00  0.00     0.000 OA
ATOM     50   S  ASG A 304      14.190  36.442   56.090  0.00  0.00     0.000 S
ATOM     51   O  ASG A 304      15.320  40.418   53.090  0.00  0.00     0.000 O
ATOM     53  HD  ASG A 304      15.820  40.918   53.590  0.00  0.00     0.000 HD
ATOM     53   C  ASG A 304      15.020  39.217   53.800  0.00  0.00     0.000 C
BRANCH 35 54
ATOM     54  O4  BDP A 303      15.890  36.136   50.340  0.00  0.00     0.000 O
BRANCH 54 58
ATOM     55  C1  BDP A 303      18.370  37.317   47.260  0.00  0.00     0.000 C
ATOM     56  C2  BDP A 303      18.700  37.829   48.660  0.00  0.00     0.000 C
ATOM     57  C3  BDP A 303      18.030  36.933   49.680  0.00  0.00     0.000 C
ATOM     58  C4  BDP A 303      16.520  36.966   49.430  0.00  0.00     0.000 C
ATOM     59  C5  BDP A 303      16.240  36.444   47.990  0.00  0.00     0.000 C
ATOM     60  O5  BDP A 303      16.940  37.286   47.030  0.00  0.00     0.000 O
ATOM     61   O  BDP A 303      20.120  37.813   48.830  0.00  0.00     0.000 O
ATOM     63  HD  BDP A 303      20.620  38.313   49.330  0.00  0.00     0.000 HD
ATOM     63   O  BDP A 303      18.330  37.427   51.000  0.00  0.00     0.000 O
ATOM     65  HD  BDP A 303      18.830  37.927   51.500  0.00  0.00     0.000 HD
ATOM     65   O  BDP A 303      14.350  35.375   47.100  0.00  0.00     0.000 OA
ATOM     66   O  BDP A 303      14.140  37.496   47.860  0.00  0.00     0.000 OA
ATOM     67   C  BDP A 303      14.760  36.444   47.620  0.00  0.00     0.000 C
BRANCH 55 68
ATOM     68  O3  ASG A 302      18.950  38.150   46.320  0.00  0.00     0.000 O
BRANCH 68 71
ATOM     69  C1  ASG A 302      20.110  37.134   43.000  0.00  0.00     0.000 C
ATOM     70  C2  ASG A 302      20.240  37.565   44.460  0.00  0.00     0.000 C
ATOM     71  C3  ASG A 302      18.840  37.701   45.020  0.00  0.00     0.000 C
ATOM     72  C4  ASG A 302      18.080  38.757   44.200  0.00  0.00     0.000 C
ATOM     73  C5  ASG A 302      18.000  38.259   42.740  0.00  0.00     0.000 C
ATOM     74  O5  ASG A 302      19.340  38.079   42.220  0.00  0.00     0.000 O
ATOM     75   N  ASG A 302      21.010  36.541   45.220  0.00  0.00     0.000 N
ATOM     77  HD  ASG A 302      21.510  37.041   45.720  0.00  0.00     0.000 HD
ATOM     77   O  ASG A 302      22.580  38.014   46.080  0.00  0.00     0.000 OA
ATOM     78   C  ASG A 302      22.130  36.883   45.980  0.00  0.00     0.000 C
ATOM     79   C  ASG A 302      22.740  35.696   46.680  0.00  0.00     0.000 C
ATOM     80   O  ASG A 302      18.820  39.993   44.220  0.00  0.00     0.000 O
ATOM     81   O  ASG A 302      17.170  41.060   45.780  0.00  0.00     0.000 OA
ATOM     82   O  ASG A 302      17.280  41.819   43.530  0.00  0.00     0.000 OA
ATOM     83   O  ASG A 302      19.020  42.329   45.040  0.00  0.00     0.000 OA
ATOM     84   S  ASG A 302      18.050  41.330   44.660  0.00  0.00     0.000 S
ATOM     85   O  ASG A 302      16.910  38.558   40.610  0.00  0.00     0.000 O
ATOM     87  HD  ASG A 302      17.410  39.058   41.110  0.00  0.00     0.000 HD
ATOM     87   C  ASG A 302      17.290  39.214   41.820  0.00  0.00     0.000 C
BRANCH 69 88
ATOM     88  O4  BDP A 301      21.360  37.047   42.440  0.00  0.00     0.000 O
BRANCH 88 92
ATOM     89  C1  BDP A 301      23.590  36.092   39.200  0.00  0.00     0.000 C
ATOM     90  C2  BDP A 301      22.290  36.774   38.880  0.00  0.00     0.000 C
ATOM     91  C3  BDP A 301      21.820  37.464   40.150  0.00  0.00     0.000 C
ATOM     92  C4  BDP A 301      21.620  36.395   41.250  0.00  0.00     0.000 C
ATOM     93  C5  BDP A 301      22.940  35.671   41.500  0.00  0.00     0.000 C
ATOM     94  O5  BDP A 301      23.440  35.105   40.260  0.00  0.00     0.000 O
ENDBRANCH 88 92
ENDBRANCH 69 88
ENDBRANCH 68 71
ENDBRANCH 55 68
ENDBRANCH 54 58
ENDBRANCH 35 54
ENDBRANCH 34 37
ENDBRANCH 21 34
ENDBRANCH 20 24
ENDBRANCH 1 20
TORSDOF 10