ROOT
ATOM      1  C1  IDS A 505      13.370  17.143  -21.730  0.00  0.00     0.000 C
ATOM      2  C2  IDS A 505      13.740  16.795  -23.200  0.00  0.00     0.000 C
ATOM      3  C3  IDS A 505      15.090  16.061  -23.240  0.00  0.00     0.000 C
ATOM      4  C4  IDS A 505      16.220  16.943  -22.650  0.00  0.00     0.000 C
ATOM      5  C5  IDS A 505      15.720  17.853  -21.490  0.00  0.00     0.000 C
ATOM      6  O5  IDS A 505      14.530  17.279  -20.890  0.00  0.00     0.000 O
ATOM      7   O  IDS A 505      12.740  15.948  -23.740  0.00  0.00     0.000 O
ATOM      9  HD  IDS A 505      13.240  16.448  -23.240  0.00  0.00     0.000 HD
ATOM      9   O  IDS A 535      15.420  15.754  -24.580  0.00  0.00     0.000 O
ATOM     11  HD  IDS A 535      15.920  16.254  -24.080  0.00  0.00     0.000 HD
ATOM     11   O  IDS A 505      17.680  18.843  -20.570  0.00  0.00     0.000 OA
ATOM     12   O  IDS A 505      16.740  17.459  -19.350  0.00  0.00     0.000 OA
ATOM     13   C  IDS A 505      16.780  18.063  -20.400  0.00  0.00     0.000 C
ENDROOT
BRANCH 1 14
ATOM     14  O4  IDS A 505      12.610  18.320  -21.760  0.00  0.00     0.000 O
BRANCH 14 18
ATOM     15  C1  SGN A 504       9.000  19.494  -19.740  0.00  0.00     0.000 C
ATOM     16  C2  SGN A 504      10.390  20.085  -19.390  0.00  0.00     0.000 C
ATOM     17  C3  SGN A 504      11.340  19.913  -20.590  0.00  0.00     0.000 C
ATOM     18  C4  SGN A 504      11.480  18.398  -20.890  0.00  0.00     0.000 C
ATOM     19  C5  SGN A 504      10.050  17.852  -21.220  0.00  0.00     0.000 C
ATOM     20  O5  SGN A 504       9.120  18.126  -20.140  0.00  0.00     0.000 O
ATOM     21   N  SGN A 504      10.210  21.502  -19.020  0.00  0.00     0.000 N
ATOM     23  HD  SGN A 504      10.710  22.002  -18.520  0.00  0.00     0.000 HD
ATOM     23   S  SGN A 504       9.920  21.925  -17.460  0.00  0.00     0.000 S
ATOM     24   O  SGN A 504      10.100  20.777  -16.620  0.00  0.00     0.000 OA
ATOM     25   O  SGN A 504      10.840  22.982  -17.160  0.00  0.00     0.000 OA
ATOM     26   O  SGN A 504       8.550  22.377  -17.450  0.00  0.00     0.000 OA
ATOM     27   O  SGN A 504      12.610  20.443  -20.270  0.00  0.00     0.000 O
ATOM     29  HD  SGN A 504      13.110  20.943  -19.770  0.00  0.00     0.000 HD
ATOM     29   C  SGN A 504       9.980  16.343  -21.500  0.00  0.00     0.000 C
ATOM     30   O  SGN A 504      10.400  15.646  -20.350  0.00  0.00     0.000 O
ATOM     31   S  SGN A 504      10.150  14.146  -19.990  0.00  0.00     0.000 S
ATOM     32   O  SGN A 504      10.790  13.909  -18.730  0.00  0.00     0.000 OA
ATOM     33   O  SGN A 504       8.720  14.018  -19.920  0.00  0.00     0.000 OA
ATOM     34   O  SGN A 504      10.720  13.379  -21.060  0.00  0.00     0.000 OA
BRANCH 15 35
ATOM     35  O4  SGN A 504       8.360  20.241  -20.760  0.00  0.00     0.000 O
BRANCH 35 39
ATOM     36  C1  IDS A 503       6.170  22.283  -22.770  0.00  0.00     0.000 C
ATOM     37  C2  IDS A 503       6.360  22.598  -21.260  0.00  0.00     0.000 C
ATOM     38  C3  IDS A 503       6.290  21.366  -20.310  0.00  0.00     0.000 C
ATOM     39  C4  IDS A 503       6.940  20.087  -20.910  0.00  0.00     0.000 C
ATOM     40  C5  IDS A 503       6.490  19.912  -22.380  0.00  0.00     0.000 C
ATOM     41  O5  IDS A 503       6.850  21.082  -23.120  0.00  0.00     0.000 O
ATOM     42   O  IDS A 503       7.610  23.229  -21.100  0.00  0.00     0.000 O
ATOM     43   S  IDS A 503       7.910  24.757  -20.940  0.00  0.00     0.000 S
ATOM     44   O  IDS A 503       7.390  25.139  -19.670  0.00  0.00     0.000 OA
ATOM     45   O  IDS A 503       9.340  24.864  -21.020  0.00  0.00     0.000 OA
ATOM     46   O  IDS A 503       7.260  25.419  -22.030  0.00  0.00     0.000 OA
ATOM     47   O  IDS A 503       4.940  21.079  -20.030  0.00  0.00     0.000 O
ATOM     49  HD  IDS A 503       5.440  21.579  -19.530  0.00  0.00     0.000 HD
ATOM     49   C  IDS A 503       7.040  18.679  -23.080  0.00  0.00     0.000 C
ATOM     50   O  IDS A 503       8.030  18.738  -23.790  0.00  0.00     0.000 OA
ATOM     51   O  IDS A 503       6.510  17.602  -22.950  0.00  0.00     0.000 OA
BRANCH 36 52
ATOM     52  O4  IDS A 503       4.800  22.223  -23.060  0.00  0.00     0.000 O
BRANCH 52 56
ATOM     53  C1  SGN A 502       2.230  22.906  -26.330  0.00  0.00     0.000 C
ATOM     54  C2  SGN A 502       2.870  21.504  -26.110  0.00  0.00     0.000 C
ATOM     55  C3  SGN A 502       3.350  21.380  -24.650  0.00  0.00     0.000 C
ATOM     56  C4  SGN A 502       4.410  22.477  -24.410  0.00  0.00     0.000 C
ATOM     57  C5  SGN A 502       3.740  23.868  -24.650  0.00  0.00     0.000 C
ATOM     58  O5  SGN A 502       3.170  23.937  -25.980  0.00  0.00     0.000 O
ATOM     59   N  SGN A 502       1.860  20.482  -26.450  0.00  0.00     0.000 N
ATOM     61  HD  SGN A 502       2.360  20.982  -25.950  0.00  0.00     0.000 HD
ATOM     61   S  SGN A 502       1.920  19.742  -27.910  0.00  0.00     0.000 S
ATOM     62   O  SGN A 502       3.260  19.315  -28.150  0.00  0.00     0.000 OA
ATOM     63   O  SGN A 502       0.990  18.651  -27.830  0.00  0.00     0.000 OA
ATOM     64   O  SGN A 502       1.500  20.748  -28.840  0.00  0.00     0.000 OA
ATOM     65   O  SGN A 502       3.930  20.108  -24.460  0.00  0.00     0.000 O
ATOM     67  HD  SGN A 502       4.430  20.608  -23.960  0.00  0.00     0.000 HD
ATOM     67   C  SGN A 502       4.670  25.080  -24.480  0.00  0.00     0.000 C
ATOM     68   O  SGN A 502       5.860  24.857  -25.220  0.00  0.00     0.000 O
ATOM     69   S  SGN A 502       6.700  25.902  -26.030  0.00  0.00     0.000 S
ATOM     70   O  SGN A 502       7.800  25.201  -26.610  0.00  0.00     0.000 OA
ATOM     71   O  SGN A 502       5.790  26.411  -27.020  0.00  0.00     0.000 OA
ATOM     72   O  SGN A 502       7.100  26.906  -25.090  0.00  0.00     0.000 OA
BRANCH 53 73
ATOM     73  O4  SGN A 502       1.050  23.049  -25.570  0.00  0.00     0.000 O
BRANCH 73 77
ATOM     74  C1  IDS A 501      -2.310  25.713  -26.470  0.00  0.00     0.000 C
ATOM     75  C2  IDS A 501      -1.210  25.599  -27.570  0.00  0.00     0.000 C
ATOM     76  C3  IDS A 501       0.180  25.190  -27.020  0.00  0.00     0.000 C
ATOM     77  C4  IDS A 501       0.110  24.061  -25.950  0.00  0.00     0.000 C
ATOM     78  C5  IDS A 501      -0.980  24.404  -24.910  0.00  0.00     0.000 C
ATOM     79  O5  IDS A 501      -2.240  24.594  -25.590  0.00  0.00     0.000 O
ATOM     80   O  IDS A 501      -2.150  26.932  -25.800  0.00  0.00     0.000 OA
ATOM     81   O  IDS A 501      -1.630  24.626  -28.510  0.00  0.00     0.000 O
ATOM     83  HD  IDS A 501      -1.130  25.126  -28.010  0.00  0.00     0.000 HD
ATOM     83   O  IDS A 501       0.790  26.318  -26.430  0.00  0.00     0.000 O
ATOM     85  HD  IDS A 501       1.290  26.818  -25.930  0.00  0.00     0.000 HD
ATOM     85   O  IDS A 501      -0.650  23.535  -22.720  0.00  0.00     0.000 OA
ATOM     86   C  IDS A 501      -1.170  23.371  -23.800  0.00  0.00     0.000 C
ATOM     87   O  IDS A 501      -1.820  22.365  -23.970  0.00  0.00     0.000 OA
ENDBRANCH 73 77
ENDBRANCH 53 73
ENDBRANCH 52 56
ENDBRANCH 36 52
ENDBRANCH 35 39
ENDBRANCH 15 35
ENDBRANCH 14 18
ENDBRANCH 1 14
TORSDOF 8