ROOT
ATOM      1  C1  NTO L 869      -8.020  17.734  -18.060  0.00  0.00     0.000 C
ATOM      2  C2  NTO L 869      -7.070  18.879  -17.710  0.00  0.00     0.000 C
ATOM      3  C3  NTO L 869      -6.130  19.124  -18.880  0.00  0.00     0.000 C
ATOM      4  C4  NTO L 869      -5.400  17.824  -19.250  0.00  0.00     0.000 C
ATOM      5  C5  NTO L 869      -6.400  16.680  -19.440  0.00  0.00     0.000 C
ATOM      6  O5  NTO L 869      -7.240  16.543  -18.280  0.00  0.00     0.000 O
ATOM      7   O  NTO L 869     -10.250  16.320  -22.100  0.00  0.00     0.000 OA
ATOM      8   O  NTO L 869      -8.790  17.988  -22.060  0.00  0.00     0.000 OA
ATOM      9  C3  NTO L 869     -10.840  18.591  -18.200  0.00  0.00     0.000 C
ATOM     10   O  NTO L 869     -10.350  18.269  -16.890  0.00  0.00     0.000 O
ATOM     12  HD  NTO L 869      -9.850  18.769  -16.390  0.00  0.00     0.000 HD
ATOM     12  C2  NTO L 869     -12.320  18.232  -18.280  0.00  0.00     0.000 C
ATOM     13   O  NTO L 869     -13.060  19.043  -17.360  0.00  0.00     0.000 O
ATOM     15  HD  NTO L 869     -12.560  19.543  -16.860  0.00  0.00     0.000 HD
ATOM     15  C1  NTO L 869     -12.850  18.454  -19.700  0.00  0.00     0.000 C
ATOM     16  C4  NTO L 869     -10.070  17.790  -19.250  0.00  0.00     0.000 C
ATOM     17  C5  NTO L 869     -10.670  18.133  -20.610  0.00  0.00     0.000 C
ATOM     18  O5  NTO L 869     -12.050  17.748  -20.670  0.00  0.00     0.000 O
ATOM     19   C  NTO L 869      -9.840  17.429  -21.670  0.00  0.00     0.000 C
ATOM     20   N  NTO L 869      -7.870  20.084  -17.470  0.00  0.00     0.000 N
ATOM     22  HD  NTO L 869      -7.370  20.584  -16.970  0.00  0.00     0.000 HD
ATOM     22   S  NTO L 869      -7.200  20.943  -16.260  0.00  0.00     0.000 S
ATOM     23   O  NTO L 869      -5.790  21.293  -16.620  0.00  0.00     0.000 OA
ATOM     24   O  NTO L 869      -7.210  20.120  -15.000  0.00  0.00     0.000 OA
ATOM     25   O  NTO L 869      -8.000  22.194  -16.040  0.00  0.00     0.000 OA
ATOM     26   O  NTO L 869      -5.160  20.122  -18.530  0.00  0.00     0.000 O
ATOM     28  HD  NTO L 869      -4.660  20.622  -18.030  0.00  0.00     0.000 HD
ATOM     28   O  NTO L 869      -4.700  18.022  -20.480  0.00  0.00     0.000 O
ATOM     30  HD  NTO L 869      -4.200  18.522  -19.980  0.00  0.00     0.000 HD
ATOM     30   C  NTO L 869      -5.620  15.372  -19.600  0.00  0.00     0.000 C
ATOM     31   O  NTO L 869      -6.510  14.259  -19.710  0.00  0.00     0.000 O
ATOM     32   S  NTO L 869      -6.010  12.918  -19.660  0.00  0.00     0.000 S
ATOM     33   O  NTO L 869      -5.900  12.483  -18.230  0.00  0.00     0.000 OA
ATOM     34   O  NTO L 869      -4.670  12.859  -20.310  0.00  0.00     0.000 OA
ATOM     35   O  NTO L 869      -6.970  12.013  -20.370  0.00  0.00     0.000 OA
ENDROOT
BRANCH 91 36
ATOM     36  O4  NTO L 869      -8.680  18.127  -19.270  0.00  0.00     0.000 O
BRANCH 36 138
ATOM     37  C1  NTO L 869     -12.850  18.454  -19.700  0.00  0.00     0.000 C
ATOM     38  C2  NTO L 869     -12.320  18.232  -18.280  0.00  0.00     0.000 C
ATOM     39  C3  NTO L 869     -10.840  18.591  -18.200  0.00  0.00     0.000 C
ATOM     40  C4  NTO L 869     -10.070  17.790  -19.250  0.00  0.00     0.000 C
ATOM     41  C5  NTO L 869     -10.670  18.133  -20.610  0.00  0.00     0.000 C
ATOM     42  O5  NTO L 869     -12.050  17.748  -20.670  0.00  0.00     0.000 O
ATOM     43   N  NTO L 869     -16.980  16.993  -23.700  0.00  0.00     0.000 N
ATOM     45  HD  NTO L 869     -16.480  17.493  -23.200  0.00  0.00     0.000 HD
ATOM     45  C4  NTO L 869     -14.920  18.542  -20.880  0.00  0.00     0.000 C
ATOM     46  C5  NTO L 869     -16.050  19.416  -20.360  0.00  0.00     0.000 C
ATOM     47  O5  NTO L 869     -16.880  19.916  -21.420  0.00  0.00     0.000 O
ATOM     48   C  NTO L 869     -15.450  20.593  -19.580  0.00  0.00     0.000 C
ATOM     49   O  NTO L 869     -14.590  21.384  -20.410  0.00  0.00     0.000 O
ATOM     50   S  NTO L 869     -13.850  22.484  -19.870  0.00  0.00     0.000 S
ATOM     51   O  NTO L 869     -12.450  22.058  -19.580  0.00  0.00     0.000 OA
ATOM     52   O  NTO L 869     -14.500  22.942  -18.590  0.00  0.00     0.000 OA
ATOM     53   O  NTO L 869     -13.840  23.606  -20.860  0.00  0.00     0.000 OA
ATOM     54  C3  NTO L 869     -15.490  17.435  -21.780  0.00  0.00     0.000 C
ATOM     55   O  NTO L 869     -14.420  16.699  -22.390  0.00  0.00     0.000 O
ATOM     56   S  NTO L 869     -14.580  15.293  -22.170  0.00  0.00     0.000 S
ATOM     57   O  NTO L 869     -15.870  14.829  -22.780  0.00  0.00     0.000 OA
ATOM     58   O  NTO L 869     -13.440  14.558  -22.820  0.00  0.00     0.000 OA
ATOM     59   O  NTO L 869     -14.590  14.997  -20.700  0.00  0.00     0.000 OA
ATOM     60  C2  NTO L 869     -16.380  18.046  -22.860  0.00  0.00     0.000 C
ATOM     61   S  NTO L 869     -17.990  17.590  -24.830  0.00  0.00     0.000 S
ATOM     62   O  NTO L 869     -19.410  17.282  -24.450  0.00  0.00     0.000 OA
ATOM     63   O  NTO L 869     -17.690  16.959  -26.160  0.00  0.00     0.000 OA
ATOM     64   O  NTO L 869     -17.820  19.074  -24.960  0.00  0.00     0.000 OA
ATOM     65  C1  NTO L 869     -17.480  18.837  -22.150  0.00  0.00     0.000 C
ATOM     66   O  NTO L 869     -13.060  19.043  -17.360  0.00  0.00     0.000 O
ATOM     68  HD  NTO L 869     -12.560  19.543  -16.860  0.00  0.00     0.000 HD
ATOM     68   O  NTO L 869     -10.350  18.269  -16.890  0.00  0.00     0.000 O
ATOM     70  HD  NTO L 869      -9.850  18.769  -16.390  0.00  0.00     0.000 HD
ATOM     70   N  NTO L 869      -7.870  20.084  -17.470  0.00  0.00     0.000 N
ATOM     72  HD  NTO L 869      -7.370  20.584  -16.970  0.00  0.00     0.000 HD
ATOM     72   O  NTO L 869      -4.700  18.022  -20.480  0.00  0.00     0.000 O
ATOM     74  HD  NTO L 869      -4.200  18.522  -19.980  0.00  0.00     0.000 HD
ATOM     74  C4  NTO L 869      -5.400  17.824  -19.250  0.00  0.00     0.000 C
ATOM     75  C5  NTO L 869      -6.400  16.680  -19.440  0.00  0.00     0.000 C
ATOM     76  O5  NTO L 869      -7.240  16.543  -18.280  0.00  0.00     0.000 O
ATOM     77   C  NTO L 869      -5.620  15.372  -19.600  0.00  0.00     0.000 C
ATOM     78   O  NTO L 869      -6.510  14.259  -19.710  0.00  0.00     0.000 O
ATOM     79   S  NTO L 869      -6.010  12.918  -19.660  0.00  0.00     0.000 S
ATOM     80   O  NTO L 869      -5.900  12.483  -18.230  0.00  0.00     0.000 OA
ATOM     81   O  NTO L 869      -4.670  12.859  -20.310  0.00  0.00     0.000 OA
ATOM     82   O  NTO L 869      -6.970  12.013  -20.370  0.00  0.00     0.000 OA
ATOM     83  C3  NTO L 869      -6.130  19.124  -18.880  0.00  0.00     0.000 C
ATOM     84   O  NTO L 869      -5.160  20.122  -18.530  0.00  0.00     0.000 O
ATOM     86  HD  NTO L 869      -4.660  20.622  -18.030  0.00  0.00     0.000 HD
ATOM     86  C2  NTO L 869      -7.070  18.879  -17.710  0.00  0.00     0.000 C
ATOM     87   S  NTO L 869      -7.200  20.943  -16.260  0.00  0.00     0.000 S
ATOM     88   O  NTO L 869      -5.790  21.293  -16.620  0.00  0.00     0.000 OA
ATOM     89   O  NTO L 869      -7.210  20.120  -15.000  0.00  0.00     0.000 OA
ATOM     90   O  NTO L 869      -8.000  22.194  -16.040  0.00  0.00     0.000 OA
ATOM     91  C1  NTO L 869      -8.020  17.734  -18.060  0.00  0.00     0.000 C
ATOM     92   O  NTO L 869     -10.250  16.320  -22.100  0.00  0.00     0.000 OA
ATOM     93   O  NTO L 869      -8.790  17.988  -22.060  0.00  0.00     0.000 OA
ATOM     94   C  NTO L 869      -9.840  17.429  -21.670  0.00  0.00     0.000 C
BRANCH 137 95
ATOM     95  O4  NTO L 869     -14.210  17.993  -19.760  0.00  0.00     0.000 O
BRANCH 95 186
ATOM     96  C1  NTO L 869     -17.480  18.837  -22.150  0.00  0.00     0.000 C
ATOM     97  C2  NTO L 869     -16.380  18.046  -22.860  0.00  0.00     0.000 C
ATOM     98  C3  NTO L 869     -15.490  17.435  -21.780  0.00  0.00     0.000 C
ATOM     99  C4  NTO L 869     -14.920  18.542  -20.880  0.00  0.00     0.000 C
ATOM    100  C5  NTO L 869     -16.050  19.416  -20.360  0.00  0.00     0.000 C
ATOM    101  O5  NTO L 869     -16.880  19.916  -21.420  0.00  0.00     0.000 O
ATOM    102  O5  NTO L 869     -20.370  16.647  -19.750  0.00  0.00     0.000 O
ATOM    103   C  NTO L 869     -18.330  17.270  -18.610  0.00  0.00     0.000 C
ATOM    104   O  NTO L 869     -18.220  17.485  -17.370  0.00  0.00     0.000 OA
ATOM    105   O  NTO L 869     -17.460  16.677  -19.290  0.00  0.00     0.000 OA
ATOM    106  C3  NTO L 869     -20.330  18.828  -21.450  0.00  0.00     0.000 C
ATOM    107   O  NTO L 869     -20.340  20.191  -21.890  0.00  0.00     0.000 O
ATOM    109  HD  NTO L 869     -19.840  20.691  -21.390  0.00  0.00     0.000 HD
ATOM    109  C2  NTO L 869     -21.630  18.519  -20.710  0.00  0.00     0.000 C
ATOM    110   O  NTO L 869     -22.750  18.785  -21.560  0.00  0.00     0.000 O
ATOM    111   S  NTO L 869     -23.470  19.926  -21.090  0.00  0.00     0.000 S
ATOM    112   O  NTO L 869     -23.640  19.836  -19.600  0.00  0.00     0.000 OA
ATOM    113   O  NTO L 869     -22.720  21.177  -21.440  0.00  0.00     0.000 OA
ATOM    114   O  NTO L 869     -24.820  19.942  -21.740  0.00  0.00     0.000 OA
ATOM    115  C1  NTO L 869     -21.640  17.054  -20.270  0.00  0.00     0.000 C
ATOM    116  C4  NTO L 869     -19.150  18.611  -20.510  0.00  0.00     0.000 C
ATOM    117  C5  NTO L 869     -19.580  17.767  -19.310  0.00  0.00     0.000 C
ATOM    118   N  NTO L 869     -16.980  16.993  -23.700  0.00  0.00     0.000 N
ATOM    120  HD  NTO L 869     -16.480  17.493  -23.200  0.00  0.00     0.000 HD
ATOM    120   S  NTO L 869     -17.990  17.590  -24.830  0.00  0.00     0.000 S
ATOM    121   O  NTO L 869     -19.410  17.282  -24.450  0.00  0.00     0.000 OA
ATOM    122   O  NTO L 869     -17.690  16.959  -26.160  0.00  0.00     0.000 OA
ATOM    123   O  NTO L 869     -17.820  19.074  -24.960  0.00  0.00     0.000 OA
ATOM    124   O  NTO L 869     -14.420  16.699  -22.390  0.00  0.00     0.000 O
ATOM    125   S  NTO L 869     -14.580  15.293  -22.170  0.00  0.00     0.000 S
ATOM    126   O  NTO L 869     -15.870  14.829  -22.780  0.00  0.00     0.000 OA
ATOM    127   O  NTO L 869     -13.440  14.558  -22.820  0.00  0.00     0.000 OA
ATOM    128   O  NTO L 869     -14.590  14.997  -20.700  0.00  0.00     0.000 OA
ATOM    129   O  NTO L 869     -10.250  16.320  -22.100  0.00  0.00     0.000 OA
ATOM    130   O  NTO L 869      -8.790  17.988  -22.060  0.00  0.00     0.000 OA
ATOM    131  C3  NTO L 869     -10.840  18.591  -18.200  0.00  0.00     0.000 C
ATOM    132   O  NTO L 869     -10.350  18.269  -16.890  0.00  0.00     0.000 O
ATOM    134  HD  NTO L 869      -9.850  18.769  -16.390  0.00  0.00     0.000 HD
ATOM    134  C2  NTO L 869     -12.320  18.232  -18.280  0.00  0.00     0.000 C
ATOM    135   O  NTO L 869     -13.060  19.043  -17.360  0.00  0.00     0.000 O
ATOM    137  HD  NTO L 869     -12.560  19.543  -16.860  0.00  0.00     0.000 HD
ATOM    137  C1  NTO L 869     -12.850  18.454  -19.700  0.00  0.00     0.000 C
ATOM    138  C4  NTO L 869     -10.070  17.790  -19.250  0.00  0.00     0.000 C
ATOM    139  C5  NTO L 869     -10.670  18.133  -20.610  0.00  0.00     0.000 C
ATOM    140  O5  NTO L 869     -12.050  17.748  -20.670  0.00  0.00     0.000 O
ATOM    141   C  NTO L 869      -9.840  17.429  -21.670  0.00  0.00     0.000 C
ATOM    142   C  NTO L 869     -15.450  20.593  -19.580  0.00  0.00     0.000 C
ATOM    143   O  NTO L 869     -14.590  21.384  -20.410  0.00  0.00     0.000 O
ATOM    144   S  NTO L 869     -13.850  22.484  -19.870  0.00  0.00     0.000 S
ATOM    145   O  NTO L 869     -12.450  22.058  -19.580  0.00  0.00     0.000 OA
ATOM    146   O  NTO L 869     -14.500  22.942  -18.590  0.00  0.00     0.000 OA
ATOM    147   O  NTO L 869     -13.840  23.606  -20.860  0.00  0.00     0.000 OA
BRANCH 206 148
ATOM    148  O4  NTO L 869     -18.120  17.935  -21.240  0.00  0.00     0.000 O
BRANCH 148 241
ATOM    149  C1  NTO L 869     -21.640  17.054  -20.270  0.00  0.00     0.000 C
ATOM    150  C2  NTO L 869     -21.630  18.519  -20.710  0.00  0.00     0.000 C
ATOM    151  C3  NTO L 869     -20.330  18.828  -21.450  0.00  0.00     0.000 C
ATOM    152  C4  NTO L 869     -19.150  18.611  -20.510  0.00  0.00     0.000 C
ATOM    153  C5  NTO L 869     -19.580  17.767  -19.310  0.00  0.00     0.000 C
ATOM    154  O5  NTO L 869     -20.370  16.647  -19.750  0.00  0.00     0.000 O
ATOM    155   C  NTO L 869     -26.590  13.129  -16.930  0.00  0.00     0.000 C
ATOM    156   N  NTO L 869     -23.100  13.929  -15.480  0.00  0.00     0.000 N
ATOM    158  HD  NTO L 869     -22.600  14.429  -14.980  0.00  0.00     0.000 HD
ATOM    158  C4  NTO L 869     -22.860  15.511  -18.920  0.00  0.00     0.000 C
ATOM    159  C5  NTO L 869     -24.210  14.980  -19.390  0.00  0.00     0.000 C
ATOM    160  O5  NTO L 869     -24.400  13.621  -18.960  0.00  0.00     0.000 O
ATOM    161   C  NTO L 869     -24.240  14.986  -20.920  0.00  0.00     0.000 C
ATOM    162   O  NTO L 869     -23.260  14.084  -21.440  0.00  0.00     0.000 O
ATOM    163   S  NTO L 869     -23.150  13.867  -22.850  0.00  0.00     0.000 S
ATOM    164   O  NTO L 869     -21.920  14.561  -23.380  0.00  0.00     0.000 OA
ATOM    165   O  NTO L 869     -24.360  14.414  -23.540  0.00  0.00     0.000 OA
ATOM    166   O  NTO L 869     -23.040  12.395  -23.110  0.00  0.00     0.000 OA
ATOM    167  C3  NTO L 869     -22.800  15.436  -17.400  0.00  0.00     0.000 C
ATOM    168   O  NTO L 869     -21.500  15.852  -16.980  0.00  0.00     0.000 O
ATOM    170  HD  NTO L 869     -21.000  16.352  -16.480  0.00  0.00     0.000 HD
ATOM    170  C2  NTO L 869     -23.050  13.995  -16.950  0.00  0.00     0.000 C
ATOM    171   S  NTO L 869     -22.370  12.567  -14.960  0.00  0.00     0.000 S
ATOM    172   O  NTO L 869     -20.900  12.828  -14.800  0.00  0.00     0.000 OA
ATOM    173   O  NTO L 869     -22.580  11.461  -15.950  0.00  0.00     0.000 OA
ATOM    174   O  NTO L 869     -22.960  12.153  -13.640  0.00  0.00     0.000 OA
ATOM    175  C1  NTO L 869     -24.360  13.466  -17.540  0.00  0.00     0.000 C
ATOM    176   O  NTO L 869     -25.500  14.054  -16.890  0.00  0.00     0.000 O
ATOM    177   O  NTO L 869     -22.750  18.785  -21.560  0.00  0.00     0.000 O
ATOM    178   S  NTO L 869     -23.470  19.926  -21.090  0.00  0.00     0.000 S
ATOM    179   O  NTO L 869     -23.640  19.836  -19.600  0.00  0.00     0.000 OA
ATOM    180   O  NTO L 869     -22.720  21.177  -21.440  0.00  0.00     0.000 OA
ATOM    181   O  NTO L 869     -24.820  19.942  -21.740  0.00  0.00     0.000 OA
ATOM    182   O  NTO L 869     -20.340  20.191  -21.890  0.00  0.00     0.000 O
ATOM    184  HD  NTO L 869     -19.840  20.691  -21.390  0.00  0.00     0.000 HD
ATOM    184   N  NTO L 869     -16.980  16.993  -23.700  0.00  0.00     0.000 N
ATOM    186  HD  NTO L 869     -16.480  17.493  -23.200  0.00  0.00     0.000 HD
ATOM    186  C4  NTO L 869     -14.920  18.542  -20.880  0.00  0.00     0.000 C
ATOM    187  C5  NTO L 869     -16.050  19.416  -20.360  0.00  0.00     0.000 C
ATOM    188  O5  NTO L 869     -16.880  19.916  -21.420  0.00  0.00     0.000 O
ATOM    189   C  NTO L 869     -15.450  20.593  -19.580  0.00  0.00     0.000 C
ATOM    190   O  NTO L 869     -14.590  21.384  -20.410  0.00  0.00     0.000 O
ATOM    191   S  NTO L 869     -13.850  22.484  -19.870  0.00  0.00     0.000 S
ATOM    192   O  NTO L 869     -12.450  22.058  -19.580  0.00  0.00     0.000 OA
ATOM    193   O  NTO L 869     -14.500  22.942  -18.590  0.00  0.00     0.000 OA
ATOM    194   O  NTO L 869     -13.840  23.606  -20.860  0.00  0.00     0.000 OA
ATOM    195  C3  NTO L 869     -15.490  17.435  -21.780  0.00  0.00     0.000 C
ATOM    196   O  NTO L 869     -14.420  16.699  -22.390  0.00  0.00     0.000 O
ATOM    197   S  NTO L 869     -14.580  15.293  -22.170  0.00  0.00     0.000 S
ATOM    198   O  NTO L 869     -15.870  14.829  -22.780  0.00  0.00     0.000 OA
ATOM    199   O  NTO L 869     -13.440  14.558  -22.820  0.00  0.00     0.000 OA
ATOM    200   O  NTO L 869     -14.590  14.997  -20.700  0.00  0.00     0.000 OA
ATOM    201  C2  NTO L 869     -16.380  18.046  -22.860  0.00  0.00     0.000 C
ATOM    202   S  NTO L 869     -17.990  17.590  -24.830  0.00  0.00     0.000 S
ATOM    203   O  NTO L 869     -19.410  17.282  -24.450  0.00  0.00     0.000 OA
ATOM    204   O  NTO L 869     -17.690  16.959  -26.160  0.00  0.00     0.000 OA
ATOM    205   O  NTO L 869     -17.820  19.074  -24.960  0.00  0.00     0.000 OA
ATOM    206  C1  NTO L 869     -17.480  18.837  -22.150  0.00  0.00     0.000 C
ATOM    207   C  NTO L 869     -18.330  17.270  -18.610  0.00  0.00     0.000 C
ATOM    208   O  NTO L 869     -18.220  17.485  -17.370  0.00  0.00     0.000 OA
ATOM    209   O  NTO L 869     -17.460  16.677  -19.290  0.00  0.00     0.000 OA
BRANCH 240 210
ATOM    210  O4  NTO L 869     -22.700  16.885  -19.310  0.00  0.00     0.000 O
BRANCH 210 214
ATOM    211  C1  NTO L 869     -24.360  13.466  -17.540  0.00  0.00     0.000 C
ATOM    212  C2  NTO L 869     -23.050  13.995  -16.950  0.00  0.00     0.000 C
ATOM    213  C3  NTO L 869     -22.800  15.436  -17.400  0.00  0.00     0.000 C
ATOM    214  C4  NTO L 869     -22.860  15.511  -18.920  0.00  0.00     0.000 C
ATOM    215  C5  NTO L 869     -24.210  14.980  -19.390  0.00  0.00     0.000 C
ATOM    216  O5  NTO L 869     -24.400  13.621  -18.960  0.00  0.00     0.000 O
ATOM    217   C  NTO L 869     -26.590  13.129  -16.930  0.00  0.00     0.000 C
ATOM    218   O  NTO L 869     -25.500  14.054  -16.890  0.00  0.00     0.000 O
ATOM    219   N  NTO L 869     -23.100  13.929  -15.480  0.00  0.00     0.000 N
ATOM    221  HD  NTO L 869     -22.600  14.429  -14.980  0.00  0.00     0.000 HD
ATOM    221   S  NTO L 869     -22.370  12.567  -14.960  0.00  0.00     0.000 S
ATOM    222   O  NTO L 869     -20.900  12.828  -14.800  0.00  0.00     0.000 OA
ATOM    223   O  NTO L 869     -22.580  11.461  -15.950  0.00  0.00     0.000 OA
ATOM    224   O  NTO L 869     -22.960  12.153  -13.640  0.00  0.00     0.000 OA
ATOM    225   O  NTO L 869     -21.500  15.852  -16.980  0.00  0.00     0.000 O
ATOM    227  HD  NTO L 869     -21.000  16.352  -16.480  0.00  0.00     0.000 HD
ATOM    227  O5  NTO L 869     -20.370  16.647  -19.750  0.00  0.00     0.000 O
ATOM    228   C  NTO L 869     -18.330  17.270  -18.610  0.00  0.00     0.000 C
ATOM    229   O  NTO L 869     -18.220  17.485  -17.370  0.00  0.00     0.000 OA
ATOM    230   O  NTO L 869     -17.460  16.677  -19.290  0.00  0.00     0.000 OA
ATOM    231  C3  NTO L 869     -20.330  18.828  -21.450  0.00  0.00     0.000 C
ATOM    232   O  NTO L 869     -20.340  20.191  -21.890  0.00  0.00     0.000 O
ATOM    234  HD  NTO L 869     -19.840  20.691  -21.390  0.00  0.00     0.000 HD
ATOM    234  C2  NTO L 869     -21.630  18.519  -20.710  0.00  0.00     0.000 C
ATOM    235   O  NTO L 869     -22.750  18.785  -21.560  0.00  0.00     0.000 O
ATOM    236   S  NTO L 869     -23.470  19.926  -21.090  0.00  0.00     0.000 S
ATOM    237   O  NTO L 869     -23.640  19.836  -19.600  0.00  0.00     0.000 OA
ATOM    238   O  NTO L 869     -22.720  21.177  -21.440  0.00  0.00     0.000 OA
ATOM    239   O  NTO L 869     -24.820  19.942  -21.740  0.00  0.00     0.000 OA
ATOM    240  C1  NTO L 869     -21.640  17.054  -20.270  0.00  0.00     0.000 C
ATOM    241  C4  NTO L 869     -19.150  18.611  -20.510  0.00  0.00     0.000 C
ATOM    242  C5  NTO L 869     -19.580  17.767  -19.310  0.00  0.00     0.000 C
ATOM    243   C  NTO L 869     -24.240  14.986  -20.920  0.00  0.00     0.000 C
ATOM    244   O  NTO L 869     -23.260  14.084  -21.440  0.00  0.00     0.000 O
ATOM    245   S  NTO L 869     -23.150  13.867  -22.850  0.00  0.00     0.000 S
ATOM    246   O  NTO L 869     -21.920  14.561  -23.380  0.00  0.00     0.000 OA
ATOM    247   O  NTO L 869     -24.360  14.414  -23.540  0.00  0.00     0.000 OA
ATOM    248   O  NTO L 869     -23.040  12.395  -23.110  0.00  0.00     0.000 OA
ENDBRANCH 210 214
ENDBRANCH 240 210
ENDBRANCH 148 241
ENDBRANCH 206 148
ENDBRANCH 95 186
ENDBRANCH 137 95
ENDBRANCH 36 138
ENDBRANCH 91 36
TORSDOF 8