ROOT
ATOM      1  C1  NTO I 863      55.460   0.099    7.930  0.00  0.00     0.000 C
ATOM      2  C2  NTO I 863      55.150  -0.302    6.490  0.00  0.00     0.000 C
ATOM      3  C3  NTO I 863      54.480   0.865    5.760  0.00  0.00     0.000 C
ATOM      4  C4  NTO I 863      53.240   1.309    6.550  0.00  0.00     0.000 C
ATOM      5  C5  NTO I 863      53.600   1.595    8.010  0.00  0.00     0.000 C
ATOM      6  O5  NTO I 863      54.240   0.447    8.600  0.00  0.00     0.000 O
ATOM      7  C3  NTO I 863      58.360   0.002    8.600  0.00  0.00     0.000 C
ATOM      8   O  NTO I 863      57.710  -1.271    8.630  0.00  0.00     0.000 O
ATOM     10  HD  NTO I 863      58.210  -0.771    9.130  0.00  0.00     0.000 HD
ATOM     10  C2  NTO I 863      59.480   0.005    9.640  0.00  0.00     0.000 C
ATOM     11   O  NTO I 863      60.480  -0.954    9.300  0.00  0.00     0.000 O
ATOM     13  HD  NTO I 863      60.980  -0.454    9.800  0.00  0.00     0.000 HD
ATOM     13  C1  NTO I 863      60.110   1.394    9.730  0.00  0.00     0.000 C
ATOM     14  C4  NTO I 863      57.360   1.102    8.930  0.00  0.00     0.000 C
ATOM     15  C5  NTO I 863      58.080   2.437    9.070  0.00  0.00     0.000 C
ATOM     16  O5  NTO I 863      59.110   2.367   10.070  0.00  0.00     0.000 O
ATOM     17   C  NTO I 863      57.040   3.480    9.460  0.00  0.00     0.000 C
ATOM     18   O  NTO I 863      57.170   4.068   10.560  0.00  0.00     0.000 OA
ATOM     19   O  NTO I 863      56.100   3.699    8.660  0.00  0.00     0.000 OA
ATOM     20   N  NTO I 863      56.410  -0.655    5.810  0.00  0.00     0.000 N
ATOM     22  HD  NTO I 863      56.910  -0.155    6.310  0.00  0.00     0.000 HD
ATOM     22   S  NTO I 863      56.290  -2.154    5.170  0.00  0.00     0.000 S
ATOM     23   O  NTO I 863      55.220  -2.154    4.130  0.00  0.00     0.000 OA
ATOM     24   O  NTO I 863      55.950  -3.142    6.250  0.00  0.00     0.000 OA
ATOM     25   O  NTO I 863      57.600  -2.540    4.560  0.00  0.00     0.000 OA
ATOM     26   O  NTO I 863      54.100   0.444    4.450  0.00  0.00     0.000 O
ATOM     28  HD  NTO I 863      54.600   0.944    4.950  0.00  0.00     0.000 HD
ATOM     28   O  NTO I 863      52.700   2.498    5.970  0.00  0.00     0.000 O
ATOM     30  HD  NTO I 863      53.200   2.998    6.470  0.00  0.00     0.000 HD
ATOM     30   C  NTO I 863      52.290   1.856    8.770  0.00  0.00     0.000 C
ATOM     31   O  NTO I 863      52.500   2.059   10.170  0.00  0.00     0.000 O
ATOM     32   S  NTO I 863      51.420   1.841   11.100  0.00  0.00     0.000 S
ATOM     33   O  NTO I 863      51.020   0.399   11.040  0.00  0.00     0.000 OA
ATOM     34   O  NTO I 863      50.250   2.707   10.740  0.00  0.00     0.000 OA
ATOM     35   O  NTO I 863      51.890   2.175   12.480  0.00  0.00     0.000 OA
ENDROOT
BRANCH 91 36
ATOM     36  O4  NTO I 863      56.350   1.222    7.900  0.00  0.00     0.000 O
BRANCH 36 136
ATOM     37  C1  NTO I 863      60.110   1.394    9.730  0.00  0.00     0.000 C
ATOM     38  C2  NTO I 863      59.480   0.005    9.640  0.00  0.00     0.000 C
ATOM     39  C3  NTO I 863      58.360   0.002    8.600  0.00  0.00     0.000 C
ATOM     40  C4  NTO I 863      57.360   1.102    8.930  0.00  0.00     0.000 C
ATOM     41  C5  NTO I 863      58.080   2.437    9.070  0.00  0.00     0.000 C
ATOM     42  O5  NTO I 863      59.110   2.367   10.070  0.00  0.00     0.000 O
ATOM     43  C4  NTO I 863      61.950   2.520   10.740  0.00  0.00     0.000 C
ATOM     44  C5  NTO I 863      63.400   2.094   10.550  0.00  0.00     0.000 C
ATOM     45  O5  NTO I 863      64.290   3.218   10.600  0.00  0.00     0.000 O
ATOM     46   C  NTO I 863      63.550   1.382    9.200  0.00  0.00     0.000 C
ATOM     47   O  NTO I 863      63.300   2.263    8.110  0.00  0.00     0.000 O
ATOM     48   S  NTO I 863      63.230   1.750    6.770  0.00  0.00     0.000 S
ATOM     49   O  NTO I 863      61.840   1.240    6.510  0.00  0.00     0.000 OA
ATOM     50   O  NTO I 863      64.210   0.632    6.610  0.00  0.00     0.000 OA
ATOM     51   O  NTO I 863      63.540   2.842    5.790  0.00  0.00     0.000 OA
ATOM     52  C3  NTO I 863      61.810   3.287   12.060  0.00  0.00     0.000 C
ATOM     53   O  NTO I 863      60.500   3.851   12.150  0.00  0.00     0.000 O
ATOM     54   S  NTO I 863      59.890   3.588   13.410  0.00  0.00     0.000 S
ATOM     55   O  NTO I 863      60.740   4.131   14.520  0.00  0.00     0.000 OA
ATOM     56   O  NTO I 863      58.540   4.248   13.450  0.00  0.00     0.000 OA
ATOM     57   O  NTO I 863      59.720   2.109   13.600  0.00  0.00     0.000 OA
ATOM     58  C2  NTO I 863      62.840   4.417   12.100  0.00  0.00     0.000 C
ATOM     59   S  NTO I 863      63.770   6.372   13.400  0.00  0.00     0.000 S
ATOM     60   O  NTO I 863      65.100   5.970   13.970  0.00  0.00     0.000 OA
ATOM     61   O  NTO I 863      63.190   7.482   14.220  0.00  0.00     0.000 OA
ATOM     62   O  NTO I 863      63.950   6.835   11.980  0.00  0.00     0.000 OA
ATOM     63  C1  NTO I 863      64.250   3.859   11.890  0.00  0.00     0.000 C
ATOM     64   N  NTO I 863      62.770   5.092   13.410  0.00  0.00     0.000 N
ATOM     66  HD  NTO I 863      63.270   5.592   13.910  0.00  0.00     0.000 HD
ATOM     66   O  NTO I 863      60.480  -0.954    9.300  0.00  0.00     0.000 O
ATOM     68  HD  NTO I 863      60.980  -0.454    9.800  0.00  0.00     0.000 HD
ATOM     68   O  NTO I 863      57.710  -1.271    8.630  0.00  0.00     0.000 O
ATOM     70  HD  NTO I 863      58.210  -0.771    9.130  0.00  0.00     0.000 HD
ATOM     70   N  NTO I 863      56.410  -0.655    5.810  0.00  0.00     0.000 N
ATOM     72  HD  NTO I 863      56.910  -0.155    6.310  0.00  0.00     0.000 HD
ATOM     72   O  NTO I 863      52.700   2.498    5.970  0.00  0.00     0.000 O
ATOM     74  HD  NTO I 863      53.200   2.998    6.470  0.00  0.00     0.000 HD
ATOM     74  C4  NTO I 863      53.240   1.309    6.550  0.00  0.00     0.000 C
ATOM     75  C5  NTO I 863      53.600   1.595    8.010  0.00  0.00     0.000 C
ATOM     76  O5  NTO I 863      54.240   0.447    8.600  0.00  0.00     0.000 O
ATOM     77   C  NTO I 863      52.290   1.856    8.770  0.00  0.00     0.000 C
ATOM     78   O  NTO I 863      52.500   2.059   10.170  0.00  0.00     0.000 O
ATOM     79   S  NTO I 863      51.420   1.841   11.100  0.00  0.00     0.000 S
ATOM     80   O  NTO I 863      51.020   0.399   11.040  0.00  0.00     0.000 OA
ATOM     81   O  NTO I 863      50.250   2.707   10.740  0.00  0.00     0.000 OA
ATOM     82   O  NTO I 863      51.890   2.175   12.480  0.00  0.00     0.000 OA
ATOM     83  C3  NTO I 863      54.480   0.865    5.760  0.00  0.00     0.000 C
ATOM     84   O  NTO I 863      54.100   0.444    4.450  0.00  0.00     0.000 O
ATOM     86  HD  NTO I 863      54.600   0.944    4.950  0.00  0.00     0.000 HD
ATOM     86  C2  NTO I 863      55.150  -0.302    6.490  0.00  0.00     0.000 C
ATOM     87   S  NTO I 863      56.290  -2.154    5.170  0.00  0.00     0.000 S
ATOM     88   O  NTO I 863      55.220  -2.154    4.130  0.00  0.00     0.000 OA
ATOM     89   O  NTO I 863      55.950  -3.142    6.250  0.00  0.00     0.000 OA
ATOM     90   O  NTO I 863      57.600  -2.540    4.560  0.00  0.00     0.000 OA
ATOM     91  C1  NTO I 863      55.460   0.099    7.930  0.00  0.00     0.000 C
ATOM     92   C  NTO I 863      57.040   3.480    9.460  0.00  0.00     0.000 C
ATOM     93   O  NTO I 863      57.170   4.068   10.560  0.00  0.00     0.000 OA
ATOM     94   O  NTO I 863      56.100   3.699    8.660  0.00  0.00     0.000 OA
BRANCH 135 95
ATOM     95  O4  NTO I 863      61.130   1.346   10.750  0.00  0.00     0.000 O
BRANCH 95 184
ATOM     96  C1  NTO I 863      64.250   3.859   11.890  0.00  0.00     0.000 C
ATOM     97  C2  NTO I 863      62.840   4.417   12.100  0.00  0.00     0.000 C
ATOM     98  C3  NTO I 863      61.810   3.287   12.060  0.00  0.00     0.000 C
ATOM     99  C4  NTO I 863      61.950   2.520   10.740  0.00  0.00     0.000 C
ATOM    100  C5  NTO I 863      63.400   2.094   10.550  0.00  0.00     0.000 C
ATOM    101  O5  NTO I 863      64.290   3.218   10.600  0.00  0.00     0.000 O
ATOM    102   O  NTO I 863      64.660  -0.816   12.690  0.00  0.00     0.000 OA
ATOM    103   O  NTO I 863      63.550   0.694   13.860  0.00  0.00     0.000 OA
ATOM    104  C3  NTO I 863      66.930   3.249   13.260  0.00  0.00     0.000 C
ATOM    105   O  NTO I 863      67.550   3.876   12.140  0.00  0.00     0.000 O
ATOM    107  HD  NTO I 863      68.050   4.376   12.640  0.00  0.00     0.000 HD
ATOM    107  C2  NTO I 863      67.980   2.466   14.050  0.00  0.00     0.000 C
ATOM    108   O  NTO I 863      69.050   3.336   14.450  0.00  0.00     0.000 O
ATOM    109   S  NTO I 863      70.320   2.810   14.060  0.00  0.00     0.000 S
ATOM    110   O  NTO I 863      70.480   1.423   14.620  0.00  0.00     0.000 OA
ATOM    111   O  NTO I 863      70.430   2.770   12.570  0.00  0.00     0.000 OA
ATOM    112   O  NTO I 863      71.400   3.690   14.620  0.00  0.00     0.000 OA
ATOM    113  C1  NTO I 863      67.350   1.817   15.280  0.00  0.00     0.000 C
ATOM    114  C4  NTO I 863      65.830   2.302   12.770  0.00  0.00     0.000 C
ATOM    115  C5  NTO I 863      65.900   1.017   13.580  0.00  0.00     0.000 C
ATOM    116  O5  NTO I 863      66.030   1.332   14.980  0.00  0.00     0.000 O
ATOM    117   C  NTO I 863      64.600   0.235   13.360  0.00  0.00     0.000 C
ATOM    118   N  NTO I 863      62.770   5.092   13.410  0.00  0.00     0.000 N
ATOM    120  HD  NTO I 863      63.270   5.592   13.910  0.00  0.00     0.000 HD
ATOM    120   S  NTO I 863      63.770   6.372   13.400  0.00  0.00     0.000 S
ATOM    121   O  NTO I 863      65.100   5.970   13.970  0.00  0.00     0.000 OA
ATOM    122   O  NTO I 863      63.190   7.482   14.220  0.00  0.00     0.000 OA
ATOM    123   O  NTO I 863      63.950   6.835   11.980  0.00  0.00     0.000 OA
ATOM    124   O  NTO I 863      60.500   3.851   12.150  0.00  0.00     0.000 O
ATOM    125   S  NTO I 863      59.890   3.588   13.410  0.00  0.00     0.000 S
ATOM    126   O  NTO I 863      60.740   4.131   14.520  0.00  0.00     0.000 OA
ATOM    127   O  NTO I 863      58.540   4.248   13.450  0.00  0.00     0.000 OA
ATOM    128   O  NTO I 863      59.720   2.109   13.600  0.00  0.00     0.000 OA
ATOM    129  C3  NTO I 863      58.360   0.002    8.600  0.00  0.00     0.000 C
ATOM    130   O  NTO I 863      57.710  -1.271    8.630  0.00  0.00     0.000 O
ATOM    132  HD  NTO I 863      58.210  -0.771    9.130  0.00  0.00     0.000 HD
ATOM    132  C2  NTO I 863      59.480   0.005    9.640  0.00  0.00     0.000 C
ATOM    133   O  NTO I 863      60.480  -0.954    9.300  0.00  0.00     0.000 O
ATOM    135  HD  NTO I 863      60.980  -0.454    9.800  0.00  0.00     0.000 HD
ATOM    135  C1  NTO I 863      60.110   1.394    9.730  0.00  0.00     0.000 C
ATOM    136  C4  NTO I 863      57.360   1.102    8.930  0.00  0.00     0.000 C
ATOM    137  C5  NTO I 863      58.080   2.437    9.070  0.00  0.00     0.000 C
ATOM    138  O5  NTO I 863      59.110   2.367   10.070  0.00  0.00     0.000 O
ATOM    139   C  NTO I 863      57.040   3.480    9.460  0.00  0.00     0.000 C
ATOM    140   O  NTO I 863      57.170   4.068   10.560  0.00  0.00     0.000 OA
ATOM    141   O  NTO I 863      56.100   3.699    8.660  0.00  0.00     0.000 OA
ATOM    142   C  NTO I 863      63.550   1.382    9.200  0.00  0.00     0.000 C
ATOM    143   O  NTO I 863      63.300   2.263    8.110  0.00  0.00     0.000 O
ATOM    144   S  NTO I 863      63.230   1.750    6.770  0.00  0.00     0.000 S
ATOM    145   O  NTO I 863      61.840   1.240    6.510  0.00  0.00     0.000 OA
ATOM    146   O  NTO I 863      64.210   0.632    6.610  0.00  0.00     0.000 OA
ATOM    147   O  NTO I 863      63.540   2.842    5.790  0.00  0.00     0.000 OA
BRANCH 204 148
ATOM    148  O4  NTO I 863      64.540   2.913   12.930  0.00  0.00     0.000 O
BRANCH 148 152
ATOM    149  C1  NTO I 863      67.350   1.817   15.280  0.00  0.00     0.000 C
ATOM    150  C2  NTO I 863      67.980   2.466   14.050  0.00  0.00     0.000 C
ATOM    151  C3  NTO I 863      66.930   3.249   13.260  0.00  0.00     0.000 C
ATOM    152  C4  NTO I 863      65.830   2.302   12.770  0.00  0.00     0.000 C
ATOM    153  C5  NTO I 863      65.900   1.017   13.580  0.00  0.00     0.000 C
ATOM    154  O5  NTO I 863      66.030   1.332   14.980  0.00  0.00     0.000 O
ATOM    155  C4  NTO I 863      67.720   0.374   17.110  0.00  0.00     0.000 C
ATOM    156  C5  NTO I 863      68.700   0.799   18.190  0.00  0.00     0.000 C
ATOM    157  O5  NTO I 863      68.170   0.461   19.480  0.00  0.00     0.000 O
ATOM    158   C  NTO I 863      68.860   2.318   18.180  0.00  0.00     0.000 C
ATOM    159   O  NTO I 863      67.700   2.936   18.740  0.00  0.00     0.000 O
ATOM    160   S  NTO I 863      67.570   4.360   18.720  0.00  0.00     0.000 S
ATOM    161   O  NTO I 863      66.930   4.767   17.430  0.00  0.00     0.000 OA
ATOM    162   O  NTO I 863      68.920   4.997   18.850  0.00  0.00     0.000 OA
ATOM    163   O  NTO I 863      66.710   4.803   19.870  0.00  0.00     0.000 OA
ATOM    164  C3  NTO I 863      67.610  -1.151   17.190  0.00  0.00     0.000 C
ATOM    165   O  NTO I 863      66.690  -1.624   16.210  0.00  0.00     0.000 O
ATOM    167  HD  NTO I 863      67.190  -1.124   16.710  0.00  0.00     0.000 HD
ATOM    167  C2  NTO I 863      67.120  -1.541   18.580  0.00  0.00     0.000 C
ATOM    168   S  NTO I 863      65.730  -3.471   19.540  0.00  0.00     0.000 S
ATOM    169   O  NTO I 863      64.640  -3.818   18.580  0.00  0.00     0.000 OA
ATOM    170   O  NTO I 863      65.270  -2.363   20.440  0.00  0.00     0.000 OA
ATOM    171   O  NTO I 863      66.060  -4.671   20.380  0.00  0.00     0.000 OA
ATOM    172  C1  NTO I 863      68.040  -0.959   19.650  0.00  0.00     0.000 C
ATOM    173   O  NTO I 863      69.340  -1.573   19.590  0.00  0.00     0.000 O
ATOM    174   C  NTO I 863      69.470  -2.490   20.680  0.00  0.00     0.000 C
ATOM    175   N  NTO I 863      67.060  -3.005   18.710  0.00  0.00     0.000 N
ATOM    177  HD  NTO I 863      67.560  -2.505   19.210  0.00  0.00     0.000 HD
ATOM    177   O  NTO I 863      69.050   3.336   14.450  0.00  0.00     0.000 O
ATOM    178   S  NTO I 863      70.320   2.810   14.060  0.00  0.00     0.000 S
ATOM    179   O  NTO I 863      70.480   1.423   14.620  0.00  0.00     0.000 OA
ATOM    180   O  NTO I 863      70.430   2.770   12.570  0.00  0.00     0.000 OA
ATOM    181   O  NTO I 863      71.400   3.690   14.620  0.00  0.00     0.000 OA
ATOM    182   O  NTO I 863      67.550   3.876   12.140  0.00  0.00     0.000 O
ATOM    184  HD  NTO I 863      68.050   4.376   12.640  0.00  0.00     0.000 HD
ATOM    184  C4  NTO I 863      61.950   2.520   10.740  0.00  0.00     0.000 C
ATOM    185  C5  NTO I 863      63.400   2.094   10.550  0.00  0.00     0.000 C
ATOM    186  O5  NTO I 863      64.290   3.218   10.600  0.00  0.00     0.000 O
ATOM    187   C  NTO I 863      63.550   1.382    9.200  0.00  0.00     0.000 C
ATOM    188   O  NTO I 863      63.300   2.263    8.110  0.00  0.00     0.000 O
ATOM    189   S  NTO I 863      63.230   1.750    6.770  0.00  0.00     0.000 S
ATOM    190   O  NTO I 863      61.840   1.240    6.510  0.00  0.00     0.000 OA
ATOM    191   O  NTO I 863      64.210   0.632    6.610  0.00  0.00     0.000 OA
ATOM    192   O  NTO I 863      63.540   2.842    5.790  0.00  0.00     0.000 OA
ATOM    193  C3  NTO I 863      61.810   3.287   12.060  0.00  0.00     0.000 C
ATOM    194   O  NTO I 863      60.500   3.851   12.150  0.00  0.00     0.000 O
ATOM    195   S  NTO I 863      59.890   3.588   13.410  0.00  0.00     0.000 S
ATOM    196   O  NTO I 863      60.740   4.131   14.520  0.00  0.00     0.000 OA
ATOM    197   O  NTO I 863      58.540   4.248   13.450  0.00  0.00     0.000 OA
ATOM    198   O  NTO I 863      59.720   2.109   13.600  0.00  0.00     0.000 OA
ATOM    199  C2  NTO I 863      62.840   4.417   12.100  0.00  0.00     0.000 C
ATOM    200   S  NTO I 863      63.770   6.372   13.400  0.00  0.00     0.000 S
ATOM    201   O  NTO I 863      65.100   5.970   13.970  0.00  0.00     0.000 OA
ATOM    202   O  NTO I 863      63.190   7.482   14.220  0.00  0.00     0.000 OA
ATOM    203   O  NTO I 863      63.950   6.835   11.980  0.00  0.00     0.000 OA
ATOM    204  C1  NTO I 863      64.250   3.859   11.890  0.00  0.00     0.000 C
ATOM    205   N  NTO I 863      62.770   5.092   13.410  0.00  0.00     0.000 N
ATOM    207  HD  NTO I 863      63.270   5.592   13.910  0.00  0.00     0.000 HD
ATOM    207   O  NTO I 863      64.660  -0.816   12.690  0.00  0.00     0.000 OA
ATOM    208   O  NTO I 863      63.550   0.694   13.860  0.00  0.00     0.000 OA
ATOM    209   C  NTO I 863      64.600   0.235   13.360  0.00  0.00     0.000 C
BRANCH 149 210
ATOM    210  O4  NTO I 863      68.180   0.776   15.810  0.00  0.00     0.000 O
BRANCH 210 214
ATOM    211  C1  NTO I 863      68.040  -0.959   19.650  0.00  0.00     0.000 C
ATOM    212  C2  NTO I 863      67.120  -1.541   18.580  0.00  0.00     0.000 C
ATOM    213  C3  NTO I 863      67.610  -1.151   17.190  0.00  0.00     0.000 C
ATOM    214  C4  NTO I 863      67.720   0.374   17.110  0.00  0.00     0.000 C
ATOM    215  C5  NTO I 863      68.700   0.799   18.190  0.00  0.00     0.000 C
ATOM    216  O5  NTO I 863      68.170   0.461   19.480  0.00  0.00     0.000 O
ENDBRANCH 210 214
ENDBRANCH 149 210
ENDBRANCH 148 152
ENDBRANCH 204 148
ENDBRANCH 95 184
ENDBRANCH 135 95
ENDBRANCH 36 136
ENDBRANCH 91 36
TORSDOF 8