ROOT
ATOM      1  C1  NTO L 869      -8.020  17.734  -18.060  0.00  0.00     0.000 C
ATOM      2  C2  NTO L 869      -7.070  18.879  -17.710  0.00  0.00     0.000 C
ATOM      3  C3  NTO L 869      -6.130  19.124  -18.880  0.00  0.00     0.000 C
ATOM      4  C4  NTO L 869      -5.400  17.824  -19.250  0.00  0.00     0.000 C
ATOM      5  C5  NTO L 869      -6.400  16.680  -19.440  0.00  0.00     0.000 C
ATOM      6  O5  NTO L 869      -7.240  16.543  -18.280  0.00  0.00     0.000 O
ATOM      7   C  NTO L 869     -26.590  13.129  -16.930  0.00  0.00     0.000 C
ATOM      8   N  NTO L 869     -23.100  13.929  -15.480  0.00  0.00     0.000 N
ATOM     10  HD  NTO L 869     -22.600  14.429  -14.980  0.00  0.00     0.000 HD
ATOM     10   N  NTO L 869     -16.980  16.993  -23.700  0.00  0.00     0.000 N
ATOM     12  HD  NTO L 869     -16.480  17.493  -23.200  0.00  0.00     0.000 HD
ATOM     12  C4  NTO L 869     -10.070  17.790  -19.250  0.00  0.00     0.000 C
ATOM     13  C5  NTO L 869     -10.670  18.133  -20.610  0.00  0.00     0.000 C
ATOM     14  O5  NTO L 869     -12.050  17.748  -20.670  0.00  0.00     0.000 O
ATOM     15   C  NTO L 869      -9.840  17.429  -21.670  0.00  0.00     0.000 C
ATOM     16   O  NTO L 869     -10.250  16.320  -22.100  0.00  0.00     0.000 OA
ATOM     17   O  NTO L 869      -8.790  17.988  -22.060  0.00  0.00     0.000 OA
ATOM     18  C3  NTO L 869     -10.840  18.591  -18.200  0.00  0.00     0.000 C
ATOM     19   O  NTO L 869     -10.350  18.269  -16.890  0.00  0.00     0.000 O
ATOM     21  HD  NTO L 869      -9.850  18.769  -16.390  0.00  0.00     0.000 HD
ATOM     21  C2  NTO L 869     -12.320  18.232  -18.280  0.00  0.00     0.000 C
ATOM     22   O  NTO L 869     -13.060  19.043  -17.360  0.00  0.00     0.000 O
ATOM     24  HD  NTO L 869     -12.560  19.543  -16.860  0.00  0.00     0.000 HD
ATOM     24  C1  NTO L 869     -12.850  18.454  -19.700  0.00  0.00     0.000 C
ATOM     25  O4  NTO L 869     -14.210  17.993  -19.760  0.00  0.00     0.000 O
ATOM     26  C4  NTO L 869     -14.920  18.542  -20.880  0.00  0.00     0.000 C
ATOM     27  C5  NTO L 869     -16.050  19.416  -20.360  0.00  0.00     0.000 C
ATOM     28  O5  NTO L 869     -16.880  19.916  -21.420  0.00  0.00     0.000 O
ATOM     29   C  NTO L 869     -15.450  20.593  -19.580  0.00  0.00     0.000 C
ATOM     30   O  NTO L 869     -14.590  21.384  -20.410  0.00  0.00     0.000 O
ATOM     31   S  NTO L 869     -13.850  22.484  -19.870  0.00  0.00     0.000 S
ATOM     32   O  NTO L 869     -12.450  22.058  -19.580  0.00  0.00     0.000 OA
ATOM     33   O  NTO L 869     -14.500  22.942  -18.590  0.00  0.00     0.000 OA
ATOM     34   O  NTO L 869     -13.840  23.606  -20.860  0.00  0.00     0.000 OA
ATOM     35  C3  NTO L 869     -15.490  17.435  -21.780  0.00  0.00     0.000 C
ATOM     36   O  NTO L 869     -14.420  16.699  -22.390  0.00  0.00     0.000 O
ATOM     37   S  NTO L 869     -14.580  15.293  -22.170  0.00  0.00     0.000 S
ATOM     38   O  NTO L 869     -15.870  14.829  -22.780  0.00  0.00     0.000 OA
ATOM     39   O  NTO L 869     -13.440  14.558  -22.820  0.00  0.00     0.000 OA
ATOM     40   O  NTO L 869     -14.590  14.997  -20.700  0.00  0.00     0.000 OA
ATOM     41  C2  NTO L 869     -16.380  18.046  -22.860  0.00  0.00     0.000 C
ATOM     42   S  NTO L 869     -17.990  17.590  -24.830  0.00  0.00     0.000 S
ATOM     43   O  NTO L 869     -19.410  17.282  -24.450  0.00  0.00     0.000 OA
ATOM     44   O  NTO L 869     -17.690  16.959  -26.160  0.00  0.00     0.000 OA
ATOM     45   O  NTO L 869     -17.820  19.074  -24.960  0.00  0.00     0.000 OA
ATOM     46  C1  NTO L 869     -17.480  18.837  -22.150  0.00  0.00     0.000 C
ATOM     47  O4  NTO L 869     -18.120  17.935  -21.240  0.00  0.00     0.000 O
ATOM     48  C4  NTO L 869     -19.150  18.611  -20.510  0.00  0.00     0.000 C
ATOM     49  C5  NTO L 869     -19.580  17.767  -19.310  0.00  0.00     0.000 C
ATOM     50  O5  NTO L 869     -20.370  16.647  -19.750  0.00  0.00     0.000 O
ATOM     51   C  NTO L 869     -18.330  17.270  -18.610  0.00  0.00     0.000 C
ATOM     52   O  NTO L 869     -18.220  17.485  -17.370  0.00  0.00     0.000 OA
ATOM     53   O  NTO L 869     -17.460  16.677  -19.290  0.00  0.00     0.000 OA
ATOM     54  C3  NTO L 869     -20.330  18.828  -21.450  0.00  0.00     0.000 C
ATOM     55   O  NTO L 869     -20.340  20.191  -21.890  0.00  0.00     0.000 O
ATOM     57  HD  NTO L 869     -19.840  20.691  -21.390  0.00  0.00     0.000 HD
ATOM     57  C2  NTO L 869     -21.630  18.519  -20.710  0.00  0.00     0.000 C
ATOM     58   O  NTO L 869     -22.750  18.785  -21.560  0.00  0.00     0.000 O
ATOM     59   S  NTO L 869     -23.470  19.926  -21.090  0.00  0.00     0.000 S
ATOM     60   O  NTO L 869     -23.640  19.836  -19.600  0.00  0.00     0.000 OA
ATOM     61   O  NTO L 869     -22.720  21.177  -21.440  0.00  0.00     0.000 OA
ATOM     62   O  NTO L 869     -24.820  19.942  -21.740  0.00  0.00     0.000 OA
ATOM     63  C1  NTO L 869     -21.640  17.054  -20.270  0.00  0.00     0.000 C
ATOM     64  O4  NTO L 869     -22.700  16.885  -19.310  0.00  0.00     0.000 O
ATOM     65  C4  NTO L 869     -22.860  15.511  -18.920  0.00  0.00     0.000 C
ATOM     66  C5  NTO L 869     -24.210  14.980  -19.390  0.00  0.00     0.000 C
ATOM     67  O5  NTO L 869     -24.400  13.621  -18.960  0.00  0.00     0.000 O
ATOM     68   C  NTO L 869     -24.240  14.986  -20.920  0.00  0.00     0.000 C
ATOM     69   O  NTO L 869     -23.260  14.084  -21.440  0.00  0.00     0.000 O
ATOM     70   S  NTO L 869     -23.150  13.867  -22.850  0.00  0.00     0.000 S
ATOM     71   O  NTO L 869     -21.920  14.561  -23.380  0.00  0.00     0.000 OA
ATOM     72   O  NTO L 869     -24.360  14.414  -23.540  0.00  0.00     0.000 OA
ATOM     73   O  NTO L 869     -23.040  12.395  -23.110  0.00  0.00     0.000 OA
ATOM     74  C3  NTO L 869     -22.800  15.436  -17.400  0.00  0.00     0.000 C
ATOM     75   O  NTO L 869     -21.500  15.852  -16.980  0.00  0.00     0.000 O
ATOM     77  HD  NTO L 869     -21.000  16.352  -16.480  0.00  0.00     0.000 HD
ATOM     77  C2  NTO L 869     -23.050  13.995  -16.950  0.00  0.00     0.000 C
ATOM     78   S  NTO L 869     -22.370  12.567  -14.960  0.00  0.00     0.000 S
ATOM     79   O  NTO L 869     -20.900  12.828  -14.800  0.00  0.00     0.000 OA
ATOM     80   O  NTO L 869     -22.580  11.461  -15.950  0.00  0.00     0.000 OA
ATOM     81   O  NTO L 869     -22.960  12.153  -13.640  0.00  0.00     0.000 OA
ATOM     82  C1  NTO L 869     -24.360  13.466  -17.540  0.00  0.00     0.000 C
ATOM     83   O  NTO L 869     -25.500  14.054  -16.890  0.00  0.00     0.000 O
ATOM     84   N  NTO L 869      -7.870  20.084  -17.470  0.00  0.00     0.000 N
ATOM     86  HD  NTO L 869      -7.370  20.584  -16.970  0.00  0.00     0.000 HD
ATOM     86   S  NTO L 869      -7.200  20.943  -16.260  0.00  0.00     0.000 S
ATOM     87   O  NTO L 869      -5.790  21.293  -16.620  0.00  0.00     0.000 OA
ATOM     88   O  NTO L 869      -7.210  20.120  -15.000  0.00  0.00     0.000 OA
ATOM     89   O  NTO L 869      -8.000  22.194  -16.040  0.00  0.00     0.000 OA
ATOM     90   O  NTO L 869      -5.160  20.122  -18.530  0.00  0.00     0.000 O
ATOM     92  HD  NTO L 869      -4.660  20.622  -18.030  0.00  0.00     0.000 HD
ATOM     92   O  NTO L 869      -4.700  18.022  -20.480  0.00  0.00     0.000 O
ATOM     94  HD  NTO L 869      -4.200  18.522  -19.980  0.00  0.00     0.000 HD
ATOM     94   C  NTO L 869      -5.620  15.372  -19.600  0.00  0.00     0.000 C
ATOM     95   O  NTO L 869      -6.510  14.259  -19.710  0.00  0.00     0.000 O
ATOM     96   S  NTO L 869      -6.010  12.918  -19.660  0.00  0.00     0.000 S
ATOM     97   O  NTO L 869      -5.900  12.483  -18.230  0.00  0.00     0.000 OA
ATOM     98   O  NTO L 869      -4.670  12.859  -20.310  0.00  0.00     0.000 OA
ATOM     99   O  NTO L 869      -6.970  12.013  -20.370  0.00  0.00     0.000 OA
ENDROOT
BRANCH 434 100
ATOM    100  O4  NTO L 869      -8.680  18.127  -19.270  0.00  0.00     0.000 O
BRANCH 100 435
ATOM    101  C1  NTO L 869     -12.850  18.454  -19.700  0.00  0.00     0.000 C
ATOM    102  C2  NTO L 869     -12.320  18.232  -18.280  0.00  0.00     0.000 C
ATOM    103  C3  NTO L 869     -10.840  18.591  -18.200  0.00  0.00     0.000 C
ATOM    104  C4  NTO L 869     -10.070  17.790  -19.250  0.00  0.00     0.000 C
ATOM    105  C5  NTO L 869     -10.670  18.133  -20.610  0.00  0.00     0.000 C
ATOM    106  O5  NTO L 869     -12.050  17.748  -20.670  0.00  0.00     0.000 O
ATOM    107   C  NTO L 869     -26.590  13.129  -16.930  0.00  0.00     0.000 C
ATOM    108   N  NTO L 869     -23.100  13.929  -15.480  0.00  0.00     0.000 N
ATOM    110  HD  NTO L 869     -22.600  14.429  -14.980  0.00  0.00     0.000 HD
ATOM    110   N  NTO L 869     -16.980  16.993  -23.700  0.00  0.00     0.000 N
ATOM    112  HD  NTO L 869     -16.480  17.493  -23.200  0.00  0.00     0.000 HD
ATOM    112  C4  NTO L 869     -14.920  18.542  -20.880  0.00  0.00     0.000 C
ATOM    113  C5  NTO L 869     -16.050  19.416  -20.360  0.00  0.00     0.000 C
ATOM    114  O5  NTO L 869     -16.880  19.916  -21.420  0.00  0.00     0.000 O
ATOM    115   C  NTO L 869     -15.450  20.593  -19.580  0.00  0.00     0.000 C
ATOM    116   O  NTO L 869     -14.590  21.384  -20.410  0.00  0.00     0.000 O
ATOM    117   S  NTO L 869     -13.850  22.484  -19.870  0.00  0.00     0.000 S
ATOM    118   O  NTO L 869     -12.450  22.058  -19.580  0.00  0.00     0.000 OA
ATOM    119   O  NTO L 869     -14.500  22.942  -18.590  0.00  0.00     0.000 OA
ATOM    120   O  NTO L 869     -13.840  23.606  -20.860  0.00  0.00     0.000 OA
ATOM    121  C3  NTO L 869     -15.490  17.435  -21.780  0.00  0.00     0.000 C
ATOM    122   O  NTO L 869     -14.420  16.699  -22.390  0.00  0.00     0.000 O
ATOM    123   S  NTO L 869     -14.580  15.293  -22.170  0.00  0.00     0.000 S
ATOM    124   O  NTO L 869     -15.870  14.829  -22.780  0.00  0.00     0.000 OA
ATOM    125   O  NTO L 869     -13.440  14.558  -22.820  0.00  0.00     0.000 OA
ATOM    126   O  NTO L 869     -14.590  14.997  -20.700  0.00  0.00     0.000 OA
ATOM    127  C2  NTO L 869     -16.380  18.046  -22.860  0.00  0.00     0.000 C
ATOM    128   S  NTO L 869     -17.990  17.590  -24.830  0.00  0.00     0.000 S
ATOM    129   O  NTO L 869     -19.410  17.282  -24.450  0.00  0.00     0.000 OA
ATOM    130   O  NTO L 869     -17.690  16.959  -26.160  0.00  0.00     0.000 OA
ATOM    131   O  NTO L 869     -17.820  19.074  -24.960  0.00  0.00     0.000 OA
ATOM    132  C1  NTO L 869     -17.480  18.837  -22.150  0.00  0.00     0.000 C
ATOM    133  O4  NTO L 869     -18.120  17.935  -21.240  0.00  0.00     0.000 O
ATOM    134  C4  NTO L 869     -19.150  18.611  -20.510  0.00  0.00     0.000 C
ATOM    135  C5  NTO L 869     -19.580  17.767  -19.310  0.00  0.00     0.000 C
ATOM    136  O5  NTO L 869     -20.370  16.647  -19.750  0.00  0.00     0.000 O
ATOM    137   C  NTO L 869     -18.330  17.270  -18.610  0.00  0.00     0.000 C
ATOM    138   O  NTO L 869     -18.220  17.485  -17.370  0.00  0.00     0.000 OA
ATOM    139   O  NTO L 869     -17.460  16.677  -19.290  0.00  0.00     0.000 OA
ATOM    140  C3  NTO L 869     -20.330  18.828  -21.450  0.00  0.00     0.000 C
ATOM    141   O  NTO L 869     -20.340  20.191  -21.890  0.00  0.00     0.000 O
ATOM    143  HD  NTO L 869     -19.840  20.691  -21.390  0.00  0.00     0.000 HD
ATOM    143  C2  NTO L 869     -21.630  18.519  -20.710  0.00  0.00     0.000 C
ATOM    144   O  NTO L 869     -22.750  18.785  -21.560  0.00  0.00     0.000 O
ATOM    145   S  NTO L 869     -23.470  19.926  -21.090  0.00  0.00     0.000 S
ATOM    146   O  NTO L 869     -23.640  19.836  -19.600  0.00  0.00     0.000 OA
ATOM    147   O  NTO L 869     -22.720  21.177  -21.440  0.00  0.00     0.000 OA
ATOM    148   O  NTO L 869     -24.820  19.942  -21.740  0.00  0.00     0.000 OA
ATOM    149  C1  NTO L 869     -21.640  17.054  -20.270  0.00  0.00     0.000 C
ATOM    150  O4  NTO L 869     -22.700  16.885  -19.310  0.00  0.00     0.000 O
ATOM    151  C4  NTO L 869     -22.860  15.511  -18.920  0.00  0.00     0.000 C
ATOM    152  C5  NTO L 869     -24.210  14.980  -19.390  0.00  0.00     0.000 C
ATOM    153  O5  NTO L 869     -24.400  13.621  -18.960  0.00  0.00     0.000 O
ATOM    154   C  NTO L 869     -24.240  14.986  -20.920  0.00  0.00     0.000 C
ATOM    155   O  NTO L 869     -23.260  14.084  -21.440  0.00  0.00     0.000 O
ATOM    156   S  NTO L 869     -23.150  13.867  -22.850  0.00  0.00     0.000 S
ATOM    157   O  NTO L 869     -21.920  14.561  -23.380  0.00  0.00     0.000 OA
ATOM    158   O  NTO L 869     -24.360  14.414  -23.540  0.00  0.00     0.000 OA
ATOM    159   O  NTO L 869     -23.040  12.395  -23.110  0.00  0.00     0.000 OA
ATOM    160  C3  NTO L 869     -22.800  15.436  -17.400  0.00  0.00     0.000 C
ATOM    161   O  NTO L 869     -21.500  15.852  -16.980  0.00  0.00     0.000 O
ATOM    163  HD  NTO L 869     -21.000  16.352  -16.480  0.00  0.00     0.000 HD
ATOM    163  C2  NTO L 869     -23.050  13.995  -16.950  0.00  0.00     0.000 C
ATOM    164   S  NTO L 869     -22.370  12.567  -14.960  0.00  0.00     0.000 S
ATOM    165   O  NTO L 869     -20.900  12.828  -14.800  0.00  0.00     0.000 OA
ATOM    166   O  NTO L 869     -22.580  11.461  -15.950  0.00  0.00     0.000 OA
ATOM    167   O  NTO L 869     -22.960  12.153  -13.640  0.00  0.00     0.000 OA
ATOM    168  C1  NTO L 869     -24.360  13.466  -17.540  0.00  0.00     0.000 C
ATOM    169   O  NTO L 869     -25.500  14.054  -16.890  0.00  0.00     0.000 O
ATOM    170   O  NTO L 869     -13.060  19.043  -17.360  0.00  0.00     0.000 O
ATOM    172  HD  NTO L 869     -12.560  19.543  -16.860  0.00  0.00     0.000 HD
ATOM    172   O  NTO L 869     -10.350  18.269  -16.890  0.00  0.00     0.000 O
ATOM    174  HD  NTO L 869      -9.850  18.769  -16.390  0.00  0.00     0.000 HD
ATOM    174   N  NTO L 869      -7.870  20.084  -17.470  0.00  0.00     0.000 N
ATOM    176  HD  NTO L 869      -7.370  20.584  -16.970  0.00  0.00     0.000 HD
ATOM    176   O  NTO L 869      -4.700  18.022  -20.480  0.00  0.00     0.000 O
ATOM    178  HD  NTO L 869      -4.200  18.522  -19.980  0.00  0.00     0.000 HD
ATOM    178  C4  NTO L 869      -5.400  17.824  -19.250  0.00  0.00     0.000 C
ATOM    179  C5  NTO L 869      -6.400  16.680  -19.440  0.00  0.00     0.000 C
ATOM    180  O5  NTO L 869      -7.240  16.543  -18.280  0.00  0.00     0.000 O
ATOM    181   C  NTO L 869      -5.620  15.372  -19.600  0.00  0.00     0.000 C
ATOM    182   O  NTO L 869      -6.510  14.259  -19.710  0.00  0.00     0.000 O
ATOM    183   S  NTO L 869      -6.010  12.918  -19.660  0.00  0.00     0.000 S
ATOM    184   O  NTO L 869      -5.900  12.483  -18.230  0.00  0.00     0.000 OA
ATOM    185   O  NTO L 869      -4.670  12.859  -20.310  0.00  0.00     0.000 OA
ATOM    186   O  NTO L 869      -6.970  12.013  -20.370  0.00  0.00     0.000 OA
ATOM    187  C3  NTO L 869      -6.130  19.124  -18.880  0.00  0.00     0.000 C
ATOM    188   O  NTO L 869      -5.160  20.122  -18.530  0.00  0.00     0.000 O
ATOM    190  HD  NTO L 869      -4.660  20.622  -18.030  0.00  0.00     0.000 HD
ATOM    190  C2  NTO L 869      -7.070  18.879  -17.710  0.00  0.00     0.000 C
ATOM    191   S  NTO L 869      -7.200  20.943  -16.260  0.00  0.00     0.000 S
ATOM    192   O  NTO L 869      -5.790  21.293  -16.620  0.00  0.00     0.000 OA
ATOM    193   O  NTO L 869      -7.210  20.120  -15.000  0.00  0.00     0.000 OA
ATOM    194   O  NTO L 869      -8.000  22.194  -16.040  0.00  0.00     0.000 OA
ATOM    195  C1  NTO L 869      -8.020  17.734  -18.060  0.00  0.00     0.000 C
ATOM    196   O  NTO L 869     -10.250  16.320  -22.100  0.00  0.00     0.000 OA
ATOM    197   O  NTO L 869      -8.790  17.988  -22.060  0.00  0.00     0.000 OA
ATOM    198   C  NTO L 869      -9.840  17.429  -21.670  0.00  0.00     0.000 C
BRANCH 447 199
ATOM    199  O4  NTO L 869     -14.210  17.993  -19.760  0.00  0.00     0.000 O
BRANCH 199 448
ATOM    200  C1  NTO L 869     -17.480  18.837  -22.150  0.00  0.00     0.000 C
ATOM    201  C2  NTO L 869     -16.380  18.046  -22.860  0.00  0.00     0.000 C
ATOM    202  C3  NTO L 869     -15.490  17.435  -21.780  0.00  0.00     0.000 C
ATOM    203  C4  NTO L 869     -14.920  18.542  -20.880  0.00  0.00     0.000 C
ATOM    204  C5  NTO L 869     -16.050  19.416  -20.360  0.00  0.00     0.000 C
ATOM    205  O5  NTO L 869     -16.880  19.916  -21.420  0.00  0.00     0.000 O
ATOM    206   C  NTO L 869     -26.590  13.129  -16.930  0.00  0.00     0.000 C
ATOM    207   N  NTO L 869     -23.100  13.929  -15.480  0.00  0.00     0.000 N
ATOM    209  HD  NTO L 869     -22.600  14.429  -14.980  0.00  0.00     0.000 HD
ATOM    209  C4  NTO L 869     -19.150  18.611  -20.510  0.00  0.00     0.000 C
ATOM    210  C5  NTO L 869     -19.580  17.767  -19.310  0.00  0.00     0.000 C
ATOM    211  O5  NTO L 869     -20.370  16.647  -19.750  0.00  0.00     0.000 O
ATOM    212   C  NTO L 869     -18.330  17.270  -18.610  0.00  0.00     0.000 C
ATOM    213   O  NTO L 869     -18.220  17.485  -17.370  0.00  0.00     0.000 OA
ATOM    214   O  NTO L 869     -17.460  16.677  -19.290  0.00  0.00     0.000 OA
ATOM    215  C3  NTO L 869     -20.330  18.828  -21.450  0.00  0.00     0.000 C
ATOM    216   O  NTO L 869     -20.340  20.191  -21.890  0.00  0.00     0.000 O
ATOM    218  HD  NTO L 869     -19.840  20.691  -21.390  0.00  0.00     0.000 HD
ATOM    218  C2  NTO L 869     -21.630  18.519  -20.710  0.00  0.00     0.000 C
ATOM    219   O  NTO L 869     -22.750  18.785  -21.560  0.00  0.00     0.000 O
ATOM    220   S  NTO L 869     -23.470  19.926  -21.090  0.00  0.00     0.000 S
ATOM    221   O  NTO L 869     -23.640  19.836  -19.600  0.00  0.00     0.000 OA
ATOM    222   O  NTO L 869     -22.720  21.177  -21.440  0.00  0.00     0.000 OA
ATOM    223   O  NTO L 869     -24.820  19.942  -21.740  0.00  0.00     0.000 OA
ATOM    224  C1  NTO L 869     -21.640  17.054  -20.270  0.00  0.00     0.000 C
ATOM    225  O4  NTO L 869     -22.700  16.885  -19.310  0.00  0.00     0.000 O
ATOM    226  C4  NTO L 869     -22.860  15.511  -18.920  0.00  0.00     0.000 C
ATOM    227  C5  NTO L 869     -24.210  14.980  -19.390  0.00  0.00     0.000 C
ATOM    228  O5  NTO L 869     -24.400  13.621  -18.960  0.00  0.00     0.000 O
ATOM    229   C  NTO L 869     -24.240  14.986  -20.920  0.00  0.00     0.000 C
ATOM    230   O  NTO L 869     -23.260  14.084  -21.440  0.00  0.00     0.000 O
ATOM    231   S  NTO L 869     -23.150  13.867  -22.850  0.00  0.00     0.000 S
ATOM    232   O  NTO L 869     -21.920  14.561  -23.380  0.00  0.00     0.000 OA
ATOM    233   O  NTO L 869     -24.360  14.414  -23.540  0.00  0.00     0.000 OA
ATOM    234   O  NTO L 869     -23.040  12.395  -23.110  0.00  0.00     0.000 OA
ATOM    235  C3  NTO L 869     -22.800  15.436  -17.400  0.00  0.00     0.000 C
ATOM    236   O  NTO L 869     -21.500  15.852  -16.980  0.00  0.00     0.000 O
ATOM    238  HD  NTO L 869     -21.000  16.352  -16.480  0.00  0.00     0.000 HD
ATOM    238  C2  NTO L 869     -23.050  13.995  -16.950  0.00  0.00     0.000 C
ATOM    239   S  NTO L 869     -22.370  12.567  -14.960  0.00  0.00     0.000 S
ATOM    240   O  NTO L 869     -20.900  12.828  -14.800  0.00  0.00     0.000 OA
ATOM    241   O  NTO L 869     -22.580  11.461  -15.950  0.00  0.00     0.000 OA
ATOM    242   O  NTO L 869     -22.960  12.153  -13.640  0.00  0.00     0.000 OA
ATOM    243  C1  NTO L 869     -24.360  13.466  -17.540  0.00  0.00     0.000 C
ATOM    244   O  NTO L 869     -25.500  14.054  -16.890  0.00  0.00     0.000 O
ATOM    245   N  NTO L 869     -16.980  16.993  -23.700  0.00  0.00     0.000 N
ATOM    247  HD  NTO L 869     -16.480  17.493  -23.200  0.00  0.00     0.000 HD
ATOM    247   S  NTO L 869     -17.990  17.590  -24.830  0.00  0.00     0.000 S
ATOM    248   O  NTO L 869     -19.410  17.282  -24.450  0.00  0.00     0.000 OA
ATOM    249   O  NTO L 869     -17.690  16.959  -26.160  0.00  0.00     0.000 OA
ATOM    250   O  NTO L 869     -17.820  19.074  -24.960  0.00  0.00     0.000 OA
ATOM    251   O  NTO L 869     -14.420  16.699  -22.390  0.00  0.00     0.000 O
ATOM    252   S  NTO L 869     -14.580  15.293  -22.170  0.00  0.00     0.000 S
ATOM    253   O  NTO L 869     -15.870  14.829  -22.780  0.00  0.00     0.000 OA
ATOM    254   O  NTO L 869     -13.440  14.558  -22.820  0.00  0.00     0.000 OA
ATOM    255   O  NTO L 869     -14.590  14.997  -20.700  0.00  0.00     0.000 OA
ATOM    256   N  NTO L 869      -7.870  20.084  -17.470  0.00  0.00     0.000 N
ATOM    258  HD  NTO L 869      -7.370  20.584  -16.970  0.00  0.00     0.000 HD
ATOM    258   O  NTO L 869      -4.700  18.022  -20.480  0.00  0.00     0.000 O
ATOM    260  HD  NTO L 869      -4.200  18.522  -19.980  0.00  0.00     0.000 HD
ATOM    260  C4  NTO L 869      -5.400  17.824  -19.250  0.00  0.00     0.000 C
ATOM    261  C5  NTO L 869      -6.400  16.680  -19.440  0.00  0.00     0.000 C
ATOM    262  O5  NTO L 869      -7.240  16.543  -18.280  0.00  0.00     0.000 O
ATOM    263   C  NTO L 869      -5.620  15.372  -19.600  0.00  0.00     0.000 C
ATOM    264   O  NTO L 869      -6.510  14.259  -19.710  0.00  0.00     0.000 O
ATOM    265   S  NTO L 869      -6.010  12.918  -19.660  0.00  0.00     0.000 S
ATOM    266   O  NTO L 869      -5.900  12.483  -18.230  0.00  0.00     0.000 OA
ATOM    267   O  NTO L 869      -4.670  12.859  -20.310  0.00  0.00     0.000 OA
ATOM    268   O  NTO L 869      -6.970  12.013  -20.370  0.00  0.00     0.000 OA
ATOM    269  C3  NTO L 869      -6.130  19.124  -18.880  0.00  0.00     0.000 C
ATOM    270   O  NTO L 869      -5.160  20.122  -18.530  0.00  0.00     0.000 O
ATOM    272  HD  NTO L 869      -4.660  20.622  -18.030  0.00  0.00     0.000 HD
ATOM    272  C2  NTO L 869      -7.070  18.879  -17.710  0.00  0.00     0.000 C
ATOM    273   S  NTO L 869      -7.200  20.943  -16.260  0.00  0.00     0.000 S
ATOM    274   O  NTO L 869      -5.790  21.293  -16.620  0.00  0.00     0.000 OA
ATOM    275   O  NTO L 869      -7.210  20.120  -15.000  0.00  0.00     0.000 OA
ATOM    276   O  NTO L 869      -8.000  22.194  -16.040  0.00  0.00     0.000 OA
ATOM    277  C1  NTO L 869      -8.020  17.734  -18.060  0.00  0.00     0.000 C
ATOM    278  C4  NTO L 869     -10.070  17.790  -19.250  0.00  0.00     0.000 C
ATOM    279  C5  NTO L 869     -10.670  18.133  -20.610  0.00  0.00     0.000 C
ATOM    280  O5  NTO L 869     -12.050  17.748  -20.670  0.00  0.00     0.000 O
ATOM    281   C  NTO L 869      -9.840  17.429  -21.670  0.00  0.00     0.000 C
ATOM    282   O  NTO L 869     -10.250  16.320  -22.100  0.00  0.00     0.000 OA
ATOM    283   O  NTO L 869      -8.790  17.988  -22.060  0.00  0.00     0.000 OA
ATOM    284  C3  NTO L 869     -10.840  18.591  -18.200  0.00  0.00     0.000 C
ATOM    285   O  NTO L 869     -10.350  18.269  -16.890  0.00  0.00     0.000 O
ATOM    287  HD  NTO L 869      -9.850  18.769  -16.390  0.00  0.00     0.000 HD
ATOM    287  C2  NTO L 869     -12.320  18.232  -18.280  0.00  0.00     0.000 C
ATOM    288   O  NTO L 869     -13.060  19.043  -17.360  0.00  0.00     0.000 O
ATOM    290  HD  NTO L 869     -12.560  19.543  -16.860  0.00  0.00     0.000 HD
ATOM    290  C1  NTO L 869     -12.850  18.454  -19.700  0.00  0.00     0.000 C
ATOM    291   C  NTO L 869     -15.450  20.593  -19.580  0.00  0.00     0.000 C
ATOM    292   O  NTO L 869     -14.590  21.384  -20.410  0.00  0.00     0.000 O
ATOM    293   S  NTO L 869     -13.850  22.484  -19.870  0.00  0.00     0.000 S
ATOM    294   O  NTO L 869     -12.450  22.058  -19.580  0.00  0.00     0.000 OA
ATOM    295   O  NTO L 869     -14.500  22.942  -18.590  0.00  0.00     0.000 OA
ATOM    296   O  NTO L 869     -13.840  23.606  -20.860  0.00  0.00     0.000 OA
BRANCH 468 297
ATOM    297  O4  NTO L 869     -18.120  17.935  -21.240  0.00  0.00     0.000 O
BRANCH 297 469
ATOM    298  C1  NTO L 869     -21.640  17.054  -20.270  0.00  0.00     0.000 C
ATOM    299  C2  NTO L 869     -21.630  18.519  -20.710  0.00  0.00     0.000 C
ATOM    300  C3  NTO L 869     -20.330  18.828  -21.450  0.00  0.00     0.000 C
ATOM    301  C4  NTO L 869     -19.150  18.611  -20.510  0.00  0.00     0.000 C
ATOM    302  C5  NTO L 869     -19.580  17.767  -19.310  0.00  0.00     0.000 C
ATOM    303  O5  NTO L 869     -20.370  16.647  -19.750  0.00  0.00     0.000 O
ATOM    304   C  NTO L 869     -26.590  13.129  -16.930  0.00  0.00     0.000 C
ATOM    305   N  NTO L 869     -23.100  13.929  -15.480  0.00  0.00     0.000 N
ATOM    307  HD  NTO L 869     -22.600  14.429  -14.980  0.00  0.00     0.000 HD
ATOM    307  C4  NTO L 869     -22.860  15.511  -18.920  0.00  0.00     0.000 C
ATOM    308  C5  NTO L 869     -24.210  14.980  -19.390  0.00  0.00     0.000 C
ATOM    309  O5  NTO L 869     -24.400  13.621  -18.960  0.00  0.00     0.000 O
ATOM    310   C  NTO L 869     -24.240  14.986  -20.920  0.00  0.00     0.000 C
ATOM    311   O  NTO L 869     -23.260  14.084  -21.440  0.00  0.00     0.000 O
ATOM    312   S  NTO L 869     -23.150  13.867  -22.850  0.00  0.00     0.000 S
ATOM    313   O  NTO L 869     -21.920  14.561  -23.380  0.00  0.00     0.000 OA
ATOM    314   O  NTO L 869     -24.360  14.414  -23.540  0.00  0.00     0.000 OA
ATOM    315   O  NTO L 869     -23.040  12.395  -23.110  0.00  0.00     0.000 OA
ATOM    316  C3  NTO L 869     -22.800  15.436  -17.400  0.00  0.00     0.000 C
ATOM    317   O  NTO L 869     -21.500  15.852  -16.980  0.00  0.00     0.000 O
ATOM    319  HD  NTO L 869     -21.000  16.352  -16.480  0.00  0.00     0.000 HD
ATOM    319  C2  NTO L 869     -23.050  13.995  -16.950  0.00  0.00     0.000 C
ATOM    320   S  NTO L 869     -22.370  12.567  -14.960  0.00  0.00     0.000 S
ATOM    321   O  NTO L 869     -20.900  12.828  -14.800  0.00  0.00     0.000 OA
ATOM    322   O  NTO L 869     -22.580  11.461  -15.950  0.00  0.00     0.000 OA
ATOM    323   O  NTO L 869     -22.960  12.153  -13.640  0.00  0.00     0.000 OA
ATOM    324  C1  NTO L 869     -24.360  13.466  -17.540  0.00  0.00     0.000 C
ATOM    325   O  NTO L 869     -25.500  14.054  -16.890  0.00  0.00     0.000 O
ATOM    326   O  NTO L 869     -22.750  18.785  -21.560  0.00  0.00     0.000 O
ATOM    327   S  NTO L 869     -23.470  19.926  -21.090  0.00  0.00     0.000 S
ATOM    328   O  NTO L 869     -23.640  19.836  -19.600  0.00  0.00     0.000 OA
ATOM    329   O  NTO L 869     -22.720  21.177  -21.440  0.00  0.00     0.000 OA
ATOM    330   O  NTO L 869     -24.820  19.942  -21.740  0.00  0.00     0.000 OA
ATOM    331   O  NTO L 869     -20.340  20.191  -21.890  0.00  0.00     0.000 O
ATOM    333  HD  NTO L 869     -19.840  20.691  -21.390  0.00  0.00     0.000 HD
ATOM    333   N  NTO L 869     -16.980  16.993  -23.700  0.00  0.00     0.000 N
ATOM    335  HD  NTO L 869     -16.480  17.493  -23.200  0.00  0.00     0.000 HD
ATOM    335   N  NTO L 869      -7.870  20.084  -17.470  0.00  0.00     0.000 N
ATOM    337  HD  NTO L 869      -7.370  20.584  -16.970  0.00  0.00     0.000 HD
ATOM    337   O  NTO L 869      -4.700  18.022  -20.480  0.00  0.00     0.000 O
ATOM    339  HD  NTO L 869      -4.200  18.522  -19.980  0.00  0.00     0.000 HD
ATOM    339  C4  NTO L 869      -5.400  17.824  -19.250  0.00  0.00     0.000 C
ATOM    340  C5  NTO L 869      -6.400  16.680  -19.440  0.00  0.00     0.000 C
ATOM    341  O5  NTO L 869      -7.240  16.543  -18.280  0.00  0.00     0.000 O
ATOM    342   C  NTO L 869      -5.620  15.372  -19.600  0.00  0.00     0.000 C
ATOM    343   O  NTO L 869      -6.510  14.259  -19.710  0.00  0.00     0.000 O
ATOM    344   S  NTO L 869      -6.010  12.918  -19.660  0.00  0.00     0.000 S
ATOM    345   O  NTO L 869      -5.900  12.483  -18.230  0.00  0.00     0.000 OA
ATOM    346   O  NTO L 869      -4.670  12.859  -20.310  0.00  0.00     0.000 OA
ATOM    347   O  NTO L 869      -6.970  12.013  -20.370  0.00  0.00     0.000 OA
ATOM    348  C3  NTO L 869      -6.130  19.124  -18.880  0.00  0.00     0.000 C
ATOM    349   O  NTO L 869      -5.160  20.122  -18.530  0.00  0.00     0.000 O
ATOM    351  HD  NTO L 869      -4.660  20.622  -18.030  0.00  0.00     0.000 HD
ATOM    351  C2  NTO L 869      -7.070  18.879  -17.710  0.00  0.00     0.000 C
ATOM    352   S  NTO L 869      -7.200  20.943  -16.260  0.00  0.00     0.000 S
ATOM    353   O  NTO L 869      -5.790  21.293  -16.620  0.00  0.00     0.000 OA
ATOM    354   O  NTO L 869      -7.210  20.120  -15.000  0.00  0.00     0.000 OA
ATOM    355   O  NTO L 869      -8.000  22.194  -16.040  0.00  0.00     0.000 OA
ATOM    356  C1  NTO L 869      -8.020  17.734  -18.060  0.00  0.00     0.000 C
ATOM    357  C4  NTO L 869     -10.070  17.790  -19.250  0.00  0.00     0.000 C
ATOM    358  C5  NTO L 869     -10.670  18.133  -20.610  0.00  0.00     0.000 C
ATOM    359  O5  NTO L 869     -12.050  17.748  -20.670  0.00  0.00     0.000 O
ATOM    360   C  NTO L 869      -9.840  17.429  -21.670  0.00  0.00     0.000 C
ATOM    361   O  NTO L 869     -10.250  16.320  -22.100  0.00  0.00     0.000 OA
ATOM    362   O  NTO L 869      -8.790  17.988  -22.060  0.00  0.00     0.000 OA
ATOM    363  C3  NTO L 869     -10.840  18.591  -18.200  0.00  0.00     0.000 C
ATOM    364   O  NTO L 869     -10.350  18.269  -16.890  0.00  0.00     0.000 O
ATOM    366  HD  NTO L 869      -9.850  18.769  -16.390  0.00  0.00     0.000 HD
ATOM    366  C2  NTO L 869     -12.320  18.232  -18.280  0.00  0.00     0.000 C
ATOM    367   O  NTO L 869     -13.060  19.043  -17.360  0.00  0.00     0.000 O
ATOM    369  HD  NTO L 869     -12.560  19.543  -16.860  0.00  0.00     0.000 HD
ATOM    369  C1  NTO L 869     -12.850  18.454  -19.700  0.00  0.00     0.000 C
ATOM    370  C4  NTO L 869     -14.920  18.542  -20.880  0.00  0.00     0.000 C
ATOM    371  C5  NTO L 869     -16.050  19.416  -20.360  0.00  0.00     0.000 C
ATOM    372  O5  NTO L 869     -16.880  19.916  -21.420  0.00  0.00     0.000 O
ATOM    373   C  NTO L 869     -15.450  20.593  -19.580  0.00  0.00     0.000 C
ATOM    374   O  NTO L 869     -14.590  21.384  -20.410  0.00  0.00     0.000 O
ATOM    375   S  NTO L 869     -13.850  22.484  -19.870  0.00  0.00     0.000 S
ATOM    376   O  NTO L 869     -12.450  22.058  -19.580  0.00  0.00     0.000 OA
ATOM    377   O  NTO L 869     -14.500  22.942  -18.590  0.00  0.00     0.000 OA
ATOM    378   O  NTO L 869     -13.840  23.606  -20.860  0.00  0.00     0.000 OA
ATOM    379  C3  NTO L 869     -15.490  17.435  -21.780  0.00  0.00     0.000 C
ATOM    380   O  NTO L 869     -14.420  16.699  -22.390  0.00  0.00     0.000 O
ATOM    381   S  NTO L 869     -14.580  15.293  -22.170  0.00  0.00     0.000 S
ATOM    382   O  NTO L 869     -15.870  14.829  -22.780  0.00  0.00     0.000 OA
ATOM    383   O  NTO L 869     -13.440  14.558  -22.820  0.00  0.00     0.000 OA
ATOM    384   O  NTO L 869     -14.590  14.997  -20.700  0.00  0.00     0.000 OA
ATOM    385  C2  NTO L 869     -16.380  18.046  -22.860  0.00  0.00     0.000 C
ATOM    386   S  NTO L 869     -17.990  17.590  -24.830  0.00  0.00     0.000 S
ATOM    387   O  NTO L 869     -19.410  17.282  -24.450  0.00  0.00     0.000 OA
ATOM    388   O  NTO L 869     -17.690  16.959  -26.160  0.00  0.00     0.000 OA
ATOM    389   O  NTO L 869     -17.820  19.074  -24.960  0.00  0.00     0.000 OA
ATOM    390  C1  NTO L 869     -17.480  18.837  -22.150  0.00  0.00     0.000 C
ATOM    391   C  NTO L 869     -18.330  17.270  -18.610  0.00  0.00     0.000 C
ATOM    392   O  NTO L 869     -18.220  17.485  -17.370  0.00  0.00     0.000 OA
ATOM    393   O  NTO L 869     -17.460  16.677  -19.290  0.00  0.00     0.000 OA
BRANCH 484 394
ATOM    394  O4  NTO L 869     -22.700  16.885  -19.310  0.00  0.00     0.000 O
BRANCH 394 398
ATOM    395  C1  NTO L 869     -24.360  13.466  -17.540  0.00  0.00     0.000 C
ATOM    396  C2  NTO L 869     -23.050  13.995  -16.950  0.00  0.00     0.000 C
ATOM    397  C3  NTO L 869     -22.800  15.436  -17.400  0.00  0.00     0.000 C
ATOM    398  C4  NTO L 869     -22.860  15.511  -18.920  0.00  0.00     0.000 C
ATOM    399  C5  NTO L 869     -24.210  14.980  -19.390  0.00  0.00     0.000 C
ATOM    400  O5  NTO L 869     -24.400  13.621  -18.960  0.00  0.00     0.000 O
ATOM    401   C  NTO L 869     -26.590  13.129  -16.930  0.00  0.00     0.000 C
ATOM    402   O  NTO L 869     -25.500  14.054  -16.890  0.00  0.00     0.000 O
ATOM    403   N  NTO L 869     -23.100  13.929  -15.480  0.00  0.00     0.000 N
ATOM    405  HD  NTO L 869     -22.600  14.429  -14.980  0.00  0.00     0.000 HD
ATOM    405   S  NTO L 869     -22.370  12.567  -14.960  0.00  0.00     0.000 S
ATOM    406   O  NTO L 869     -20.900  12.828  -14.800  0.00  0.00     0.000 OA
ATOM    407   O  NTO L 869     -22.580  11.461  -15.950  0.00  0.00     0.000 OA
ATOM    408   O  NTO L 869     -22.960  12.153  -13.640  0.00  0.00     0.000 OA
ATOM    409   O  NTO L 869     -21.500  15.852  -16.980  0.00  0.00     0.000 O
ATOM    411  HD  NTO L 869     -21.000  16.352  -16.480  0.00  0.00     0.000 HD
ATOM    411   N  NTO L 869     -16.980  16.993  -23.700  0.00  0.00     0.000 N
ATOM    413  HD  NTO L 869     -16.480  17.493  -23.200  0.00  0.00     0.000 HD
ATOM    413   N  NTO L 869      -7.870  20.084  -17.470  0.00  0.00     0.000 N
ATOM    415  HD  NTO L 869      -7.370  20.584  -16.970  0.00  0.00     0.000 HD
ATOM    415   O  NTO L 869      -4.700  18.022  -20.480  0.00  0.00     0.000 O
ATOM    417  HD  NTO L 869      -4.200  18.522  -19.980  0.00  0.00     0.000 HD
ATOM    417  C4  NTO L 869      -5.400  17.824  -19.250  0.00  0.00     0.000 C
ATOM    418  C5  NTO L 869      -6.400  16.680  -19.440  0.00  0.00     0.000 C
ATOM    419  O5  NTO L 869      -7.240  16.543  -18.280  0.00  0.00     0.000 O
ATOM    420   C  NTO L 869      -5.620  15.372  -19.600  0.00  0.00     0.000 C
ATOM    421   O  NTO L 869      -6.510  14.259  -19.710  0.00  0.00     0.000 O
ATOM    422   S  NTO L 869      -6.010  12.918  -19.660  0.00  0.00     0.000 S
ATOM    423   O  NTO L 869      -5.900  12.483  -18.230  0.00  0.00     0.000 OA
ATOM    424   O  NTO L 869      -4.670  12.859  -20.310  0.00  0.00     0.000 OA
ATOM    425   O  NTO L 869      -6.970  12.013  -20.370  0.00  0.00     0.000 OA
ATOM    426  C3  NTO L 869      -6.130  19.124  -18.880  0.00  0.00     0.000 C
ATOM    427   O  NTO L 869      -5.160  20.122  -18.530  0.00  0.00     0.000 O
ATOM    429  HD  NTO L 869      -4.660  20.622  -18.030  0.00  0.00     0.000 HD
ATOM    429  C2  NTO L 869      -7.070  18.879  -17.710  0.00  0.00     0.000 C
ATOM    430   S  NTO L 869      -7.200  20.943  -16.260  0.00  0.00     0.000 S
ATOM    431   O  NTO L 869      -5.790  21.293  -16.620  0.00  0.00     0.000 OA
ATOM    432   O  NTO L 869      -7.210  20.120  -15.000  0.00  0.00     0.000 OA
ATOM    433   O  NTO L 869      -8.000  22.194  -16.040  0.00  0.00     0.000 OA
ATOM    434  C1  NTO L 869      -8.020  17.734  -18.060  0.00  0.00     0.000 C
ATOM    435  C4  NTO L 869     -10.070  17.790  -19.250  0.00  0.00     0.000 C
ATOM    436  C5  NTO L 869     -10.670  18.133  -20.610  0.00  0.00     0.000 C
ATOM    437  O5  NTO L 869     -12.050  17.748  -20.670  0.00  0.00     0.000 O
ATOM    438   C  NTO L 869      -9.840  17.429  -21.670  0.00  0.00     0.000 C
ATOM    439   O  NTO L 869     -10.250  16.320  -22.100  0.00  0.00     0.000 OA
ATOM    440   O  NTO L 869      -8.790  17.988  -22.060  0.00  0.00     0.000 OA
ATOM    441  C3  NTO L 869     -10.840  18.591  -18.200  0.00  0.00     0.000 C
ATOM    442   O  NTO L 869     -10.350  18.269  -16.890  0.00  0.00     0.000 O
ATOM    444  HD  NTO L 869      -9.850  18.769  -16.390  0.00  0.00     0.000 HD
ATOM    444  C2  NTO L 869     -12.320  18.232  -18.280  0.00  0.00     0.000 C
ATOM    445   O  NTO L 869     -13.060  19.043  -17.360  0.00  0.00     0.000 O
ATOM    447  HD  NTO L 869     -12.560  19.543  -16.860  0.00  0.00     0.000 HD
ATOM    447  C1  NTO L 869     -12.850  18.454  -19.700  0.00  0.00     0.000 C
ATOM    448  C4  NTO L 869     -14.920  18.542  -20.880  0.00  0.00     0.000 C
ATOM    449  C5  NTO L 869     -16.050  19.416  -20.360  0.00  0.00     0.000 C
ATOM    450  O5  NTO L 869     -16.880  19.916  -21.420  0.00  0.00     0.000 O
ATOM    451   C  NTO L 869     -15.450  20.593  -19.580  0.00  0.00     0.000 C
ATOM    452   O  NTO L 869     -14.590  21.384  -20.410  0.00  0.00     0.000 O
ATOM    453   S  NTO L 869     -13.850  22.484  -19.870  0.00  0.00     0.000 S
ATOM    454   O  NTO L 869     -12.450  22.058  -19.580  0.00  0.00     0.000 OA
ATOM    455   O  NTO L 869     -14.500  22.942  -18.590  0.00  0.00     0.000 OA
ATOM    456   O  NTO L 869     -13.840  23.606  -20.860  0.00  0.00     0.000 OA
ATOM    457  C3  NTO L 869     -15.490  17.435  -21.780  0.00  0.00     0.000 C
ATOM    458   O  NTO L 869     -14.420  16.699  -22.390  0.00  0.00     0.000 O
ATOM    459   S  NTO L 869     -14.580  15.293  -22.170  0.00  0.00     0.000 S
ATOM    460   O  NTO L 869     -15.870  14.829  -22.780  0.00  0.00     0.000 OA
ATOM    461   O  NTO L 869     -13.440  14.558  -22.820  0.00  0.00     0.000 OA
ATOM    462   O  NTO L 869     -14.590  14.997  -20.700  0.00  0.00     0.000 OA
ATOM    463  C2  NTO L 869     -16.380  18.046  -22.860  0.00  0.00     0.000 C
ATOM    464   S  NTO L 869     -17.990  17.590  -24.830  0.00  0.00     0.000 S
ATOM    465   O  NTO L 869     -19.410  17.282  -24.450  0.00  0.00     0.000 OA
ATOM    466   O  NTO L 869     -17.690  16.959  -26.160  0.00  0.00     0.000 OA
ATOM    467   O  NTO L 869     -17.820  19.074  -24.960  0.00  0.00     0.000 OA
ATOM    468  C1  NTO L 869     -17.480  18.837  -22.150  0.00  0.00     0.000 C
ATOM    469  C4  NTO L 869     -19.150  18.611  -20.510  0.00  0.00     0.000 C
ATOM    470  C5  NTO L 869     -19.580  17.767  -19.310  0.00  0.00     0.000 C
ATOM    471  O5  NTO L 869     -20.370  16.647  -19.750  0.00  0.00     0.000 O
ATOM    472   C  NTO L 869     -18.330  17.270  -18.610  0.00  0.00     0.000 C
ATOM    473   O  NTO L 869     -18.220  17.485  -17.370  0.00  0.00     0.000 OA
ATOM    474   O  NTO L 869     -17.460  16.677  -19.290  0.00  0.00     0.000 OA
ATOM    475  C3  NTO L 869     -20.330  18.828  -21.450  0.00  0.00     0.000 C
ATOM    476   O  NTO L 869     -20.340  20.191  -21.890  0.00  0.00     0.000 O
ATOM    478  HD  NTO L 869     -19.840  20.691  -21.390  0.00  0.00     0.000 HD
ATOM    478  C2  NTO L 869     -21.630  18.519  -20.710  0.00  0.00     0.000 C
ATOM    479   O  NTO L 869     -22.750  18.785  -21.560  0.00  0.00     0.000 O
ATOM    480   S  NTO L 869     -23.470  19.926  -21.090  0.00  0.00     0.000 S
ATOM    481   O  NTO L 869     -23.640  19.836  -19.600  0.00  0.00     0.000 OA
ATOM    482   O  NTO L 869     -22.720  21.177  -21.440  0.00  0.00     0.000 OA
ATOM    483   O  NTO L 869     -24.820  19.942  -21.740  0.00  0.00     0.000 OA
ATOM    484  C1  NTO L 869     -21.640  17.054  -20.270  0.00  0.00     0.000 C
ATOM    485   C  NTO L 869     -24.240  14.986  -20.920  0.00  0.00     0.000 C
ATOM    486   O  NTO L 869     -23.260  14.084  -21.440  0.00  0.00     0.000 O
ATOM    487   S  NTO L 869     -23.150  13.867  -22.850  0.00  0.00     0.000 S
ATOM    488   O  NTO L 869     -21.920  14.561  -23.380  0.00  0.00     0.000 OA
ATOM    489   O  NTO L 869     -24.360  14.414  -23.540  0.00  0.00     0.000 OA
ATOM    490   O  NTO L 869     -23.040  12.395  -23.110  0.00  0.00     0.000 OA
ENDBRANCH 394 398
ENDBRANCH 484 394
ENDBRANCH 297 469
ENDBRANCH 468 297
ENDBRANCH 199 448
ENDBRANCH 447 199
ENDBRANCH 100 435
ENDBRANCH 434 100
TORSDOF 8