ROOT
ATOM      1  C1  NTO I 863      55.460   0.099    7.930  0.00  0.00     0.000 C
ATOM      2  C2  NTO I 863      55.150  -0.302    6.490  0.00  0.00     0.000 C
ATOM      3  C3  NTO I 863      54.480   0.865    5.760  0.00  0.00     0.000 C
ATOM      4  C4  NTO I 863      53.240   1.309    6.550  0.00  0.00     0.000 C
ATOM      5  C5  NTO I 863      53.600   1.595    8.010  0.00  0.00     0.000 C
ATOM      6  O5  NTO I 863      54.240   0.447    8.600  0.00  0.00     0.000 O
ATOM      7  C3  NTO I 863      58.360   0.002    8.600  0.00  0.00     0.000 C
ATOM      8   O  NTO I 863      57.710  -1.271    8.630  0.00  0.00     0.000 O
ATOM     10  HD  NTO I 863      58.210  -0.771    9.130  0.00  0.00     0.000 HD
ATOM     10  C2  NTO I 863      59.480   0.005    9.640  0.00  0.00     0.000 C
ATOM     11   O  NTO I 863      60.480  -0.954    9.300  0.00  0.00     0.000 O
ATOM     13  HD  NTO I 863      60.980  -0.454    9.800  0.00  0.00     0.000 HD
ATOM     13  C1  NTO I 863      60.110   1.394    9.730  0.00  0.00     0.000 C
ATOM     14  O4  NTO I 863      61.130   1.346   10.750  0.00  0.00     0.000 O
ATOM     15  C4  NTO I 863      61.950   2.520   10.740  0.00  0.00     0.000 C
ATOM     16  C5  NTO I 863      63.400   2.094   10.550  0.00  0.00     0.000 C
ATOM     17  O5  NTO I 863      64.290   3.218   10.600  0.00  0.00     0.000 O
ATOM     18   C  NTO I 863      63.550   1.382    9.200  0.00  0.00     0.000 C
ATOM     19   O  NTO I 863      63.300   2.263    8.110  0.00  0.00     0.000 O
ATOM     20   S  NTO I 863      63.230   1.750    6.770  0.00  0.00     0.000 S
ATOM     21   O  NTO I 863      61.840   1.240    6.510  0.00  0.00     0.000 OA
ATOM     22   O  NTO I 863      64.210   0.632    6.610  0.00  0.00     0.000 OA
ATOM     23   O  NTO I 863      63.540   2.842    5.790  0.00  0.00     0.000 OA
ATOM     24  C3  NTO I 863      61.810   3.287   12.060  0.00  0.00     0.000 C
ATOM     25   O  NTO I 863      60.500   3.851   12.150  0.00  0.00     0.000 O
ATOM     26   S  NTO I 863      59.890   3.588   13.410  0.00  0.00     0.000 S
ATOM     27   O  NTO I 863      60.740   4.131   14.520  0.00  0.00     0.000 OA
ATOM     28   O  NTO I 863      58.540   4.248   13.450  0.00  0.00     0.000 OA
ATOM     29   O  NTO I 863      59.720   2.109   13.600  0.00  0.00     0.000 OA
ATOM     30  C2  NTO I 863      62.840   4.417   12.100  0.00  0.00     0.000 C
ATOM     31   S  NTO I 863      63.770   6.372   13.400  0.00  0.00     0.000 S
ATOM     32   O  NTO I 863      65.100   5.970   13.970  0.00  0.00     0.000 OA
ATOM     33   O  NTO I 863      63.190   7.482   14.220  0.00  0.00     0.000 OA
ATOM     34   O  NTO I 863      63.950   6.835   11.980  0.00  0.00     0.000 OA
ATOM     35  C1  NTO I 863      64.250   3.859   11.890  0.00  0.00     0.000 C
ATOM     36  O4  NTO I 863      64.540   2.913   12.930  0.00  0.00     0.000 O
ATOM     37  C4  NTO I 863      65.830   2.302   12.770  0.00  0.00     0.000 C
ATOM     38  C5  NTO I 863      65.900   1.017   13.580  0.00  0.00     0.000 C
ATOM     39  O5  NTO I 863      66.030   1.332   14.980  0.00  0.00     0.000 O
ATOM     40   C  NTO I 863      64.600   0.235   13.360  0.00  0.00     0.000 C
ATOM     41   O  NTO I 863      64.660  -0.816   12.690  0.00  0.00     0.000 OA
ATOM     42   O  NTO I 863      63.550   0.694   13.860  0.00  0.00     0.000 OA
ATOM     43  C3  NTO I 863      66.930   3.249   13.260  0.00  0.00     0.000 C
ATOM     44   O  NTO I 863      67.550   3.876   12.140  0.00  0.00     0.000 O
ATOM     46  HD  NTO I 863      68.050   4.376   12.640  0.00  0.00     0.000 HD
ATOM     46  C2  NTO I 863      67.980   2.466   14.050  0.00  0.00     0.000 C
ATOM     47   O  NTO I 863      69.050   3.336   14.450  0.00  0.00     0.000 O
ATOM     48   S  NTO I 863      70.320   2.810   14.060  0.00  0.00     0.000 S
ATOM     49   O  NTO I 863      70.480   1.423   14.620  0.00  0.00     0.000 OA
ATOM     50   O  NTO I 863      70.430   2.770   12.570  0.00  0.00     0.000 OA
ATOM     51   O  NTO I 863      71.400   3.690   14.620  0.00  0.00     0.000 OA
ATOM     52  C1  NTO I 863      67.350   1.817   15.280  0.00  0.00     0.000 C
ATOM     53  O4  NTO I 863      68.180   0.776   15.810  0.00  0.00     0.000 O
ATOM     54  C4  NTO I 863      67.720   0.374   17.110  0.00  0.00     0.000 C
ATOM     55  C5  NTO I 863      68.700   0.799   18.190  0.00  0.00     0.000 C
ATOM     56  O5  NTO I 863      68.170   0.461   19.480  0.00  0.00     0.000 O
ATOM     57   C  NTO I 863      68.860   2.318   18.180  0.00  0.00     0.000 C
ATOM     58   O  NTO I 863      67.700   2.936   18.740  0.00  0.00     0.000 O
ATOM     59   S  NTO I 863      67.570   4.360   18.720  0.00  0.00     0.000 S
ATOM     60   O  NTO I 863      66.930   4.767   17.430  0.00  0.00     0.000 OA
ATOM     61   O  NTO I 863      68.920   4.997   18.850  0.00  0.00     0.000 OA
ATOM     62   O  NTO I 863      66.710   4.803   19.870  0.00  0.00     0.000 OA
ATOM     63  C3  NTO I 863      67.610  -1.151   17.190  0.00  0.00     0.000 C
ATOM     64   O  NTO I 863      66.690  -1.624   16.210  0.00  0.00     0.000 O
ATOM     66  HD  NTO I 863      67.190  -1.124   16.710  0.00  0.00     0.000 HD
ATOM     66  C2  NTO I 863      67.120  -1.541   18.580  0.00  0.00     0.000 C
ATOM     67   S  NTO I 863      65.730  -3.471   19.540  0.00  0.00     0.000 S
ATOM     68   O  NTO I 863      64.640  -3.818   18.580  0.00  0.00     0.000 OA
ATOM     69   O  NTO I 863      65.270  -2.363   20.440  0.00  0.00     0.000 OA
ATOM     70   O  NTO I 863      66.060  -4.671   20.380  0.00  0.00     0.000 OA
ATOM     71  C1  NTO I 863      68.040  -0.959   19.650  0.00  0.00     0.000 C
ATOM     72   O  NTO I 863      69.340  -1.573   19.590  0.00  0.00     0.000 O
ATOM     73   C  NTO I 863      69.470  -2.490   20.680  0.00  0.00     0.000 C
ATOM     74   N  NTO I 863      67.060  -3.005   18.710  0.00  0.00     0.000 N
ATOM     76  HD  NTO I 863      67.560  -2.505   19.210  0.00  0.00     0.000 HD
ATOM     76   N  NTO I 863      62.770   5.092   13.410  0.00  0.00     0.000 N
ATOM     78  HD  NTO I 863      63.270   5.592   13.910  0.00  0.00     0.000 HD
ATOM     78  C4  NTO I 863      57.360   1.102    8.930  0.00  0.00     0.000 C
ATOM     79  C5  NTO I 863      58.080   2.437    9.070  0.00  0.00     0.000 C
ATOM     80  O5  NTO I 863      59.110   2.367   10.070  0.00  0.00     0.000 O
ATOM     81   C  NTO I 863      57.040   3.480    9.460  0.00  0.00     0.000 C
ATOM     82   O  NTO I 863      57.170   4.068   10.560  0.00  0.00     0.000 OA
ATOM     83   O  NTO I 863      56.100   3.699    8.660  0.00  0.00     0.000 OA
ATOM     84   N  NTO I 863      56.410  -0.655    5.810  0.00  0.00     0.000 N
ATOM     86  HD  NTO I 863      56.910  -0.155    6.310  0.00  0.00     0.000 HD
ATOM     86   S  NTO I 863      56.290  -2.154    5.170  0.00  0.00     0.000 S
ATOM     87   O  NTO I 863      55.220  -2.154    4.130  0.00  0.00     0.000 OA
ATOM     88   O  NTO I 863      55.950  -3.142    6.250  0.00  0.00     0.000 OA
ATOM     89   O  NTO I 863      57.600  -2.540    4.560  0.00  0.00     0.000 OA
ATOM     90   O  NTO I 863      54.100   0.444    4.450  0.00  0.00     0.000 O
ATOM     92  HD  NTO I 863      54.600   0.944    4.950  0.00  0.00     0.000 HD
ATOM     92   O  NTO I 863      52.700   2.498    5.970  0.00  0.00     0.000 O
ATOM     94  HD  NTO I 863      53.200   2.998    6.470  0.00  0.00     0.000 HD
ATOM     94   C  NTO I 863      52.290   1.856    8.770  0.00  0.00     0.000 C
ATOM     95   O  NTO I 863      52.500   2.059   10.170  0.00  0.00     0.000 O
ATOM     96   S  NTO I 863      51.420   1.841   11.100  0.00  0.00     0.000 S
ATOM     97   O  NTO I 863      51.020   0.399   11.040  0.00  0.00     0.000 OA
ATOM     98   O  NTO I 863      50.250   2.707   10.740  0.00  0.00     0.000 OA
ATOM     99   O  NTO I 863      51.890   2.175   12.480  0.00  0.00     0.000 OA
ENDROOT
BRANCH 478 100
ATOM    100  O4  NTO I 863      56.350   1.222    7.900  0.00  0.00     0.000 O
BRANCH 100 479
ATOM    101  C1  NTO I 863      60.110   1.394    9.730  0.00  0.00     0.000 C
ATOM    102  C2  NTO I 863      59.480   0.005    9.640  0.00  0.00     0.000 C
ATOM    103  C3  NTO I 863      58.360   0.002    8.600  0.00  0.00     0.000 C
ATOM    104  C4  NTO I 863      57.360   1.102    8.930  0.00  0.00     0.000 C
ATOM    105  C5  NTO I 863      58.080   2.437    9.070  0.00  0.00     0.000 C
ATOM    106  O5  NTO I 863      59.110   2.367   10.070  0.00  0.00     0.000 O
ATOM    107  C4  NTO I 863      61.950   2.520   10.740  0.00  0.00     0.000 C
ATOM    108  C5  NTO I 863      63.400   2.094   10.550  0.00  0.00     0.000 C
ATOM    109  O5  NTO I 863      64.290   3.218   10.600  0.00  0.00     0.000 O
ATOM    110   C  NTO I 863      63.550   1.382    9.200  0.00  0.00     0.000 C
ATOM    111   O  NTO I 863      63.300   2.263    8.110  0.00  0.00     0.000 O
ATOM    112   S  NTO I 863      63.230   1.750    6.770  0.00  0.00     0.000 S
ATOM    113   O  NTO I 863      61.840   1.240    6.510  0.00  0.00     0.000 OA
ATOM    114   O  NTO I 863      64.210   0.632    6.610  0.00  0.00     0.000 OA
ATOM    115   O  NTO I 863      63.540   2.842    5.790  0.00  0.00     0.000 OA
ATOM    116  C3  NTO I 863      61.810   3.287   12.060  0.00  0.00     0.000 C
ATOM    117   O  NTO I 863      60.500   3.851   12.150  0.00  0.00     0.000 O
ATOM    118   S  NTO I 863      59.890   3.588   13.410  0.00  0.00     0.000 S
ATOM    119   O  NTO I 863      60.740   4.131   14.520  0.00  0.00     0.000 OA
ATOM    120   O  NTO I 863      58.540   4.248   13.450  0.00  0.00     0.000 OA
ATOM    121   O  NTO I 863      59.720   2.109   13.600  0.00  0.00     0.000 OA
ATOM    122  C2  NTO I 863      62.840   4.417   12.100  0.00  0.00     0.000 C
ATOM    123   S  NTO I 863      63.770   6.372   13.400  0.00  0.00     0.000 S
ATOM    124   O  NTO I 863      65.100   5.970   13.970  0.00  0.00     0.000 OA
ATOM    125   O  NTO I 863      63.190   7.482   14.220  0.00  0.00     0.000 OA
ATOM    126   O  NTO I 863      63.950   6.835   11.980  0.00  0.00     0.000 OA
ATOM    127  C1  NTO I 863      64.250   3.859   11.890  0.00  0.00     0.000 C
ATOM    128  O4  NTO I 863      64.540   2.913   12.930  0.00  0.00     0.000 O
ATOM    129  C4  NTO I 863      65.830   2.302   12.770  0.00  0.00     0.000 C
ATOM    130  C5  NTO I 863      65.900   1.017   13.580  0.00  0.00     0.000 C
ATOM    131  O5  NTO I 863      66.030   1.332   14.980  0.00  0.00     0.000 O
ATOM    132   C  NTO I 863      64.600   0.235   13.360  0.00  0.00     0.000 C
ATOM    133   O  NTO I 863      64.660  -0.816   12.690  0.00  0.00     0.000 OA
ATOM    134   O  NTO I 863      63.550   0.694   13.860  0.00  0.00     0.000 OA
ATOM    135  C3  NTO I 863      66.930   3.249   13.260  0.00  0.00     0.000 C
ATOM    136   O  NTO I 863      67.550   3.876   12.140  0.00  0.00     0.000 O
ATOM    138  HD  NTO I 863      68.050   4.376   12.640  0.00  0.00     0.000 HD
ATOM    138  C2  NTO I 863      67.980   2.466   14.050  0.00  0.00     0.000 C
ATOM    139   O  NTO I 863      69.050   3.336   14.450  0.00  0.00     0.000 O
ATOM    140   S  NTO I 863      70.320   2.810   14.060  0.00  0.00     0.000 S
ATOM    141   O  NTO I 863      70.480   1.423   14.620  0.00  0.00     0.000 OA
ATOM    142   O  NTO I 863      70.430   2.770   12.570  0.00  0.00     0.000 OA
ATOM    143   O  NTO I 863      71.400   3.690   14.620  0.00  0.00     0.000 OA
ATOM    144  C1  NTO I 863      67.350   1.817   15.280  0.00  0.00     0.000 C
ATOM    145  O4  NTO I 863      68.180   0.776   15.810  0.00  0.00     0.000 O
ATOM    146  C4  NTO I 863      67.720   0.374   17.110  0.00  0.00     0.000 C
ATOM    147  C5  NTO I 863      68.700   0.799   18.190  0.00  0.00     0.000 C
ATOM    148  O5  NTO I 863      68.170   0.461   19.480  0.00  0.00     0.000 O
ATOM    149   C  NTO I 863      68.860   2.318   18.180  0.00  0.00     0.000 C
ATOM    150   O  NTO I 863      67.700   2.936   18.740  0.00  0.00     0.000 O
ATOM    151   S  NTO I 863      67.570   4.360   18.720  0.00  0.00     0.000 S
ATOM    152   O  NTO I 863      66.930   4.767   17.430  0.00  0.00     0.000 OA
ATOM    153   O  NTO I 863      68.920   4.997   18.850  0.00  0.00     0.000 OA
ATOM    154   O  NTO I 863      66.710   4.803   19.870  0.00  0.00     0.000 OA
ATOM    155  C3  NTO I 863      67.610  -1.151   17.190  0.00  0.00     0.000 C
ATOM    156   O  NTO I 863      66.690  -1.624   16.210  0.00  0.00     0.000 O
ATOM    158  HD  NTO I 863      67.190  -1.124   16.710  0.00  0.00     0.000 HD
ATOM    158  C2  NTO I 863      67.120  -1.541   18.580  0.00  0.00     0.000 C
ATOM    159   S  NTO I 863      65.730  -3.471   19.540  0.00  0.00     0.000 S
ATOM    160   O  NTO I 863      64.640  -3.818   18.580  0.00  0.00     0.000 OA
ATOM    161   O  NTO I 863      65.270  -2.363   20.440  0.00  0.00     0.000 OA
ATOM    162   O  NTO I 863      66.060  -4.671   20.380  0.00  0.00     0.000 OA
ATOM    163  C1  NTO I 863      68.040  -0.959   19.650  0.00  0.00     0.000 C
ATOM    164   O  NTO I 863      69.340  -1.573   19.590  0.00  0.00     0.000 O
ATOM    165   C  NTO I 863      69.470  -2.490   20.680  0.00  0.00     0.000 C
ATOM    166   N  NTO I 863      67.060  -3.005   18.710  0.00  0.00     0.000 N
ATOM    168  HD  NTO I 863      67.560  -2.505   19.210  0.00  0.00     0.000 HD
ATOM    168   N  NTO I 863      62.770   5.092   13.410  0.00  0.00     0.000 N
ATOM    170  HD  NTO I 863      63.270   5.592   13.910  0.00  0.00     0.000 HD
ATOM    170   O  NTO I 863      60.480  -0.954    9.300  0.00  0.00     0.000 O
ATOM    172  HD  NTO I 863      60.980  -0.454    9.800  0.00  0.00     0.000 HD
ATOM    172   O  NTO I 863      57.710  -1.271    8.630  0.00  0.00     0.000 O
ATOM    174  HD  NTO I 863      58.210  -0.771    9.130  0.00  0.00     0.000 HD
ATOM    174   N  NTO I 863      56.410  -0.655    5.810  0.00  0.00     0.000 N
ATOM    176  HD  NTO I 863      56.910  -0.155    6.310  0.00  0.00     0.000 HD
ATOM    176   O  NTO I 863      52.700   2.498    5.970  0.00  0.00     0.000 O
ATOM    178  HD  NTO I 863      53.200   2.998    6.470  0.00  0.00     0.000 HD
ATOM    178  C4  NTO I 863      53.240   1.309    6.550  0.00  0.00     0.000 C
ATOM    179  C5  NTO I 863      53.600   1.595    8.010  0.00  0.00     0.000 C
ATOM    180  O5  NTO I 863      54.240   0.447    8.600  0.00  0.00     0.000 O
ATOM    181   C  NTO I 863      52.290   1.856    8.770  0.00  0.00     0.000 C
ATOM    182   O  NTO I 863      52.500   2.059   10.170  0.00  0.00     0.000 O
ATOM    183   S  NTO I 863      51.420   1.841   11.100  0.00  0.00     0.000 S
ATOM    184   O  NTO I 863      51.020   0.399   11.040  0.00  0.00     0.000 OA
ATOM    185   O  NTO I 863      50.250   2.707   10.740  0.00  0.00     0.000 OA
ATOM    186   O  NTO I 863      51.890   2.175   12.480  0.00  0.00     0.000 OA
ATOM    187  C3  NTO I 863      54.480   0.865    5.760  0.00  0.00     0.000 C
ATOM    188   O  NTO I 863      54.100   0.444    4.450  0.00  0.00     0.000 O
ATOM    190  HD  NTO I 863      54.600   0.944    4.950  0.00  0.00     0.000 HD
ATOM    190  C2  NTO I 863      55.150  -0.302    6.490  0.00  0.00     0.000 C
ATOM    191   S  NTO I 863      56.290  -2.154    5.170  0.00  0.00     0.000 S
ATOM    192   O  NTO I 863      55.220  -2.154    4.130  0.00  0.00     0.000 OA
ATOM    193   O  NTO I 863      55.950  -3.142    6.250  0.00  0.00     0.000 OA
ATOM    194   O  NTO I 863      57.600  -2.540    4.560  0.00  0.00     0.000 OA
ATOM    195  C1  NTO I 863      55.460   0.099    7.930  0.00  0.00     0.000 C
ATOM    196   C  NTO I 863      57.040   3.480    9.460  0.00  0.00     0.000 C
ATOM    197   O  NTO I 863      57.170   4.068   10.560  0.00  0.00     0.000 OA
ATOM    198   O  NTO I 863      56.100   3.699    8.660  0.00  0.00     0.000 OA
BRANCH 417 199
ATOM    199  O4  NTO I 863      61.130   1.346   10.750  0.00  0.00     0.000 O
BRANCH 199 418
ATOM    200  C1  NTO I 863      64.250   3.859   11.890  0.00  0.00     0.000 C
ATOM    201  C2  NTO I 863      62.840   4.417   12.100  0.00  0.00     0.000 C
ATOM    202  C3  NTO I 863      61.810   3.287   12.060  0.00  0.00     0.000 C
ATOM    203  C4  NTO I 863      61.950   2.520   10.740  0.00  0.00     0.000 C
ATOM    204  C5  NTO I 863      63.400   2.094   10.550  0.00  0.00     0.000 C
ATOM    205  O5  NTO I 863      64.290   3.218   10.600  0.00  0.00     0.000 O
ATOM    206  C4  NTO I 863      65.830   2.302   12.770  0.00  0.00     0.000 C
ATOM    207  C5  NTO I 863      65.900   1.017   13.580  0.00  0.00     0.000 C
ATOM    208  O5  NTO I 863      66.030   1.332   14.980  0.00  0.00     0.000 O
ATOM    209   C  NTO I 863      64.600   0.235   13.360  0.00  0.00     0.000 C
ATOM    210   O  NTO I 863      64.660  -0.816   12.690  0.00  0.00     0.000 OA
ATOM    211   O  NTO I 863      63.550   0.694   13.860  0.00  0.00     0.000 OA
ATOM    212  C3  NTO I 863      66.930   3.249   13.260  0.00  0.00     0.000 C
ATOM    213   O  NTO I 863      67.550   3.876   12.140  0.00  0.00     0.000 O
ATOM    215  HD  NTO I 863      68.050   4.376   12.640  0.00  0.00     0.000 HD
ATOM    215  C2  NTO I 863      67.980   2.466   14.050  0.00  0.00     0.000 C
ATOM    216   O  NTO I 863      69.050   3.336   14.450  0.00  0.00     0.000 O
ATOM    217   S  NTO I 863      70.320   2.810   14.060  0.00  0.00     0.000 S
ATOM    218   O  NTO I 863      70.480   1.423   14.620  0.00  0.00     0.000 OA
ATOM    219   O  NTO I 863      70.430   2.770   12.570  0.00  0.00     0.000 OA
ATOM    220   O  NTO I 863      71.400   3.690   14.620  0.00  0.00     0.000 OA
ATOM    221  C1  NTO I 863      67.350   1.817   15.280  0.00  0.00     0.000 C
ATOM    222  O4  NTO I 863      68.180   0.776   15.810  0.00  0.00     0.000 O
ATOM    223  C4  NTO I 863      67.720   0.374   17.110  0.00  0.00     0.000 C
ATOM    224  C5  NTO I 863      68.700   0.799   18.190  0.00  0.00     0.000 C
ATOM    225  O5  NTO I 863      68.170   0.461   19.480  0.00  0.00     0.000 O
ATOM    226   C  NTO I 863      68.860   2.318   18.180  0.00  0.00     0.000 C
ATOM    227   O  NTO I 863      67.700   2.936   18.740  0.00  0.00     0.000 O
ATOM    228   S  NTO I 863      67.570   4.360   18.720  0.00  0.00     0.000 S
ATOM    229   O  NTO I 863      66.930   4.767   17.430  0.00  0.00     0.000 OA
ATOM    230   O  NTO I 863      68.920   4.997   18.850  0.00  0.00     0.000 OA
ATOM    231   O  NTO I 863      66.710   4.803   19.870  0.00  0.00     0.000 OA
ATOM    232  C3  NTO I 863      67.610  -1.151   17.190  0.00  0.00     0.000 C
ATOM    233   O  NTO I 863      66.690  -1.624   16.210  0.00  0.00     0.000 O
ATOM    235  HD  NTO I 863      67.190  -1.124   16.710  0.00  0.00     0.000 HD
ATOM    235  C2  NTO I 863      67.120  -1.541   18.580  0.00  0.00     0.000 C
ATOM    236   S  NTO I 863      65.730  -3.471   19.540  0.00  0.00     0.000 S
ATOM    237   O  NTO I 863      64.640  -3.818   18.580  0.00  0.00     0.000 OA
ATOM    238   O  NTO I 863      65.270  -2.363   20.440  0.00  0.00     0.000 OA
ATOM    239   O  NTO I 863      66.060  -4.671   20.380  0.00  0.00     0.000 OA
ATOM    240  C1  NTO I 863      68.040  -0.959   19.650  0.00  0.00     0.000 C
ATOM    241   O  NTO I 863      69.340  -1.573   19.590  0.00  0.00     0.000 O
ATOM    242   C  NTO I 863      69.470  -2.490   20.680  0.00  0.00     0.000 C
ATOM    243   N  NTO I 863      67.060  -3.005   18.710  0.00  0.00     0.000 N
ATOM    245  HD  NTO I 863      67.560  -2.505   19.210  0.00  0.00     0.000 HD
ATOM    245   N  NTO I 863      62.770   5.092   13.410  0.00  0.00     0.000 N
ATOM    247  HD  NTO I 863      63.270   5.592   13.910  0.00  0.00     0.000 HD
ATOM    247   S  NTO I 863      63.770   6.372   13.400  0.00  0.00     0.000 S
ATOM    248   O  NTO I 863      65.100   5.970   13.970  0.00  0.00     0.000 OA
ATOM    249   O  NTO I 863      63.190   7.482   14.220  0.00  0.00     0.000 OA
ATOM    250   O  NTO I 863      63.950   6.835   11.980  0.00  0.00     0.000 OA
ATOM    251   O  NTO I 863      60.500   3.851   12.150  0.00  0.00     0.000 O
ATOM    252   S  NTO I 863      59.890   3.588   13.410  0.00  0.00     0.000 S
ATOM    253   O  NTO I 863      60.740   4.131   14.520  0.00  0.00     0.000 OA
ATOM    254   O  NTO I 863      58.540   4.248   13.450  0.00  0.00     0.000 OA
ATOM    255   O  NTO I 863      59.720   2.109   13.600  0.00  0.00     0.000 OA
ATOM    256  C3  NTO I 863      58.360   0.002    8.600  0.00  0.00     0.000 C
ATOM    257   O  NTO I 863      57.710  -1.271    8.630  0.00  0.00     0.000 O
ATOM    259  HD  NTO I 863      58.210  -0.771    9.130  0.00  0.00     0.000 HD
ATOM    259  C2  NTO I 863      59.480   0.005    9.640  0.00  0.00     0.000 C
ATOM    260   O  NTO I 863      60.480  -0.954    9.300  0.00  0.00     0.000 O
ATOM    262  HD  NTO I 863      60.980  -0.454    9.800  0.00  0.00     0.000 HD
ATOM    262  C1  NTO I 863      60.110   1.394    9.730  0.00  0.00     0.000 C
ATOM    263   N  NTO I 863      56.410  -0.655    5.810  0.00  0.00     0.000 N
ATOM    265  HD  NTO I 863      56.910  -0.155    6.310  0.00  0.00     0.000 HD
ATOM    265   O  NTO I 863      52.700   2.498    5.970  0.00  0.00     0.000 O
ATOM    267  HD  NTO I 863      53.200   2.998    6.470  0.00  0.00     0.000 HD
ATOM    267  C4  NTO I 863      53.240   1.309    6.550  0.00  0.00     0.000 C
ATOM    268  C5  NTO I 863      53.600   1.595    8.010  0.00  0.00     0.000 C
ATOM    269  O5  NTO I 863      54.240   0.447    8.600  0.00  0.00     0.000 O
ATOM    270   C  NTO I 863      52.290   1.856    8.770  0.00  0.00     0.000 C
ATOM    271   O  NTO I 863      52.500   2.059   10.170  0.00  0.00     0.000 O
ATOM    272   S  NTO I 863      51.420   1.841   11.100  0.00  0.00     0.000 S
ATOM    273   O  NTO I 863      51.020   0.399   11.040  0.00  0.00     0.000 OA
ATOM    274   O  NTO I 863      50.250   2.707   10.740  0.00  0.00     0.000 OA
ATOM    275   O  NTO I 863      51.890   2.175   12.480  0.00  0.00     0.000 OA
ATOM    276  C3  NTO I 863      54.480   0.865    5.760  0.00  0.00     0.000 C
ATOM    277   O  NTO I 863      54.100   0.444    4.450  0.00  0.00     0.000 O
ATOM    279  HD  NTO I 863      54.600   0.944    4.950  0.00  0.00     0.000 HD
ATOM    279  C2  NTO I 863      55.150  -0.302    6.490  0.00  0.00     0.000 C
ATOM    280   S  NTO I 863      56.290  -2.154    5.170  0.00  0.00     0.000 S
ATOM    281   O  NTO I 863      55.220  -2.154    4.130  0.00  0.00     0.000 OA
ATOM    282   O  NTO I 863      55.950  -3.142    6.250  0.00  0.00     0.000 OA
ATOM    283   O  NTO I 863      57.600  -2.540    4.560  0.00  0.00     0.000 OA
ATOM    284  C1  NTO I 863      55.460   0.099    7.930  0.00  0.00     0.000 C
ATOM    285  C4  NTO I 863      57.360   1.102    8.930  0.00  0.00     0.000 C
ATOM    286  C5  NTO I 863      58.080   2.437    9.070  0.00  0.00     0.000 C
ATOM    287  O5  NTO I 863      59.110   2.367   10.070  0.00  0.00     0.000 O
ATOM    288   C  NTO I 863      57.040   3.480    9.460  0.00  0.00     0.000 C
ATOM    289   O  NTO I 863      57.170   4.068   10.560  0.00  0.00     0.000 OA
ATOM    290   O  NTO I 863      56.100   3.699    8.660  0.00  0.00     0.000 OA
ATOM    291   C  NTO I 863      63.550   1.382    9.200  0.00  0.00     0.000 C
ATOM    292   O  NTO I 863      63.300   2.263    8.110  0.00  0.00     0.000 O
ATOM    293   S  NTO I 863      63.230   1.750    6.770  0.00  0.00     0.000 S
ATOM    294   O  NTO I 863      61.840   1.240    6.510  0.00  0.00     0.000 OA
ATOM    295   O  NTO I 863      64.210   0.632    6.610  0.00  0.00     0.000 OA
ATOM    296   O  NTO I 863      63.540   2.842    5.790  0.00  0.00     0.000 OA
BRANCH 438 297
ATOM    297  O4  NTO I 863      64.540   2.913   12.930  0.00  0.00     0.000 O
BRANCH 297 439
ATOM    298  C1  NTO I 863      67.350   1.817   15.280  0.00  0.00     0.000 C
ATOM    299  C2  NTO I 863      67.980   2.466   14.050  0.00  0.00     0.000 C
ATOM    300  C3  NTO I 863      66.930   3.249   13.260  0.00  0.00     0.000 C
ATOM    301  C4  NTO I 863      65.830   2.302   12.770  0.00  0.00     0.000 C
ATOM    302  C5  NTO I 863      65.900   1.017   13.580  0.00  0.00     0.000 C
ATOM    303  O5  NTO I 863      66.030   1.332   14.980  0.00  0.00     0.000 O
ATOM    304  C4  NTO I 863      67.720   0.374   17.110  0.00  0.00     0.000 C
ATOM    305  C5  NTO I 863      68.700   0.799   18.190  0.00  0.00     0.000 C
ATOM    306  O5  NTO I 863      68.170   0.461   19.480  0.00  0.00     0.000 O
ATOM    307   C  NTO I 863      68.860   2.318   18.180  0.00  0.00     0.000 C
ATOM    308   O  NTO I 863      67.700   2.936   18.740  0.00  0.00     0.000 O
ATOM    309   S  NTO I 863      67.570   4.360   18.720  0.00  0.00     0.000 S
ATOM    310   O  NTO I 863      66.930   4.767   17.430  0.00  0.00     0.000 OA
ATOM    311   O  NTO I 863      68.920   4.997   18.850  0.00  0.00     0.000 OA
ATOM    312   O  NTO I 863      66.710   4.803   19.870  0.00  0.00     0.000 OA
ATOM    313  C3  NTO I 863      67.610  -1.151   17.190  0.00  0.00     0.000 C
ATOM    314   O  NTO I 863      66.690  -1.624   16.210  0.00  0.00     0.000 O
ATOM    316  HD  NTO I 863      67.190  -1.124   16.710  0.00  0.00     0.000 HD
ATOM    316  C2  NTO I 863      67.120  -1.541   18.580  0.00  0.00     0.000 C
ATOM    317   S  NTO I 863      65.730  -3.471   19.540  0.00  0.00     0.000 S
ATOM    318   O  NTO I 863      64.640  -3.818   18.580  0.00  0.00     0.000 OA
ATOM    319   O  NTO I 863      65.270  -2.363   20.440  0.00  0.00     0.000 OA
ATOM    320   O  NTO I 863      66.060  -4.671   20.380  0.00  0.00     0.000 OA
ATOM    321  C1  NTO I 863      68.040  -0.959   19.650  0.00  0.00     0.000 C
ATOM    322   O  NTO I 863      69.340  -1.573   19.590  0.00  0.00     0.000 O
ATOM    323   C  NTO I 863      69.470  -2.490   20.680  0.00  0.00     0.000 C
ATOM    324   N  NTO I 863      67.060  -3.005   18.710  0.00  0.00     0.000 N
ATOM    326  HD  NTO I 863      67.560  -2.505   19.210  0.00  0.00     0.000 HD
ATOM    326   O  NTO I 863      69.050   3.336   14.450  0.00  0.00     0.000 O
ATOM    327   S  NTO I 863      70.320   2.810   14.060  0.00  0.00     0.000 S
ATOM    328   O  NTO I 863      70.480   1.423   14.620  0.00  0.00     0.000 OA
ATOM    329   O  NTO I 863      70.430   2.770   12.570  0.00  0.00     0.000 OA
ATOM    330   O  NTO I 863      71.400   3.690   14.620  0.00  0.00     0.000 OA
ATOM    331   O  NTO I 863      67.550   3.876   12.140  0.00  0.00     0.000 O
ATOM    333  HD  NTO I 863      68.050   4.376   12.640  0.00  0.00     0.000 HD
ATOM    333  C3  NTO I 863      58.360   0.002    8.600  0.00  0.00     0.000 C
ATOM    334   O  NTO I 863      57.710  -1.271    8.630  0.00  0.00     0.000 O
ATOM    336  HD  NTO I 863      58.210  -0.771    9.130  0.00  0.00     0.000 HD
ATOM    336  C2  NTO I 863      59.480   0.005    9.640  0.00  0.00     0.000 C
ATOM    337   O  NTO I 863      60.480  -0.954    9.300  0.00  0.00     0.000 O
ATOM    339  HD  NTO I 863      60.980  -0.454    9.800  0.00  0.00     0.000 HD
ATOM    339  C1  NTO I 863      60.110   1.394    9.730  0.00  0.00     0.000 C
ATOM    340  C4  NTO I 863      61.950   2.520   10.740  0.00  0.00     0.000 C
ATOM    341  C5  NTO I 863      63.400   2.094   10.550  0.00  0.00     0.000 C
ATOM    342  O5  NTO I 863      64.290   3.218   10.600  0.00  0.00     0.000 O
ATOM    343   C  NTO I 863      63.550   1.382    9.200  0.00  0.00     0.000 C
ATOM    344   O  NTO I 863      63.300   2.263    8.110  0.00  0.00     0.000 O
ATOM    345   S  NTO I 863      63.230   1.750    6.770  0.00  0.00     0.000 S
ATOM    346   O  NTO I 863      61.840   1.240    6.510  0.00  0.00     0.000 OA
ATOM    347   O  NTO I 863      64.210   0.632    6.610  0.00  0.00     0.000 OA
ATOM    348   O  NTO I 863      63.540   2.842    5.790  0.00  0.00     0.000 OA
ATOM    349  C3  NTO I 863      61.810   3.287   12.060  0.00  0.00     0.000 C
ATOM    350   O  NTO I 863      60.500   3.851   12.150  0.00  0.00     0.000 O
ATOM    351   S  NTO I 863      59.890   3.588   13.410  0.00  0.00     0.000 S
ATOM    352   O  NTO I 863      60.740   4.131   14.520  0.00  0.00     0.000 OA
ATOM    353   O  NTO I 863      58.540   4.248   13.450  0.00  0.00     0.000 OA
ATOM    354   O  NTO I 863      59.720   2.109   13.600  0.00  0.00     0.000 OA
ATOM    355  C2  NTO I 863      62.840   4.417   12.100  0.00  0.00     0.000 C
ATOM    356   S  NTO I 863      63.770   6.372   13.400  0.00  0.00     0.000 S
ATOM    357   O  NTO I 863      65.100   5.970   13.970  0.00  0.00     0.000 OA
ATOM    358   O  NTO I 863      63.190   7.482   14.220  0.00  0.00     0.000 OA
ATOM    359   O  NTO I 863      63.950   6.835   11.980  0.00  0.00     0.000 OA
ATOM    360  C1  NTO I 863      64.250   3.859   11.890  0.00  0.00     0.000 C
ATOM    361   N  NTO I 863      62.770   5.092   13.410  0.00  0.00     0.000 N
ATOM    363  HD  NTO I 863      63.270   5.592   13.910  0.00  0.00     0.000 HD
ATOM    363   N  NTO I 863      56.410  -0.655    5.810  0.00  0.00     0.000 N
ATOM    365  HD  NTO I 863      56.910  -0.155    6.310  0.00  0.00     0.000 HD
ATOM    365   O  NTO I 863      52.700   2.498    5.970  0.00  0.00     0.000 O
ATOM    367  HD  NTO I 863      53.200   2.998    6.470  0.00  0.00     0.000 HD
ATOM    367  C4  NTO I 863      53.240   1.309    6.550  0.00  0.00     0.000 C
ATOM    368  C5  NTO I 863      53.600   1.595    8.010  0.00  0.00     0.000 C
ATOM    369  O5  NTO I 863      54.240   0.447    8.600  0.00  0.00     0.000 O
ATOM    370   C  NTO I 863      52.290   1.856    8.770  0.00  0.00     0.000 C
ATOM    371   O  NTO I 863      52.500   2.059   10.170  0.00  0.00     0.000 O
ATOM    372   S  NTO I 863      51.420   1.841   11.100  0.00  0.00     0.000 S
ATOM    373   O  NTO I 863      51.020   0.399   11.040  0.00  0.00     0.000 OA
ATOM    374   O  NTO I 863      50.250   2.707   10.740  0.00  0.00     0.000 OA
ATOM    375   O  NTO I 863      51.890   2.175   12.480  0.00  0.00     0.000 OA
ATOM    376  C3  NTO I 863      54.480   0.865    5.760  0.00  0.00     0.000 C
ATOM    377   O  NTO I 863      54.100   0.444    4.450  0.00  0.00     0.000 O
ATOM    379  HD  NTO I 863      54.600   0.944    4.950  0.00  0.00     0.000 HD
ATOM    379  C2  NTO I 863      55.150  -0.302    6.490  0.00  0.00     0.000 C
ATOM    380   S  NTO I 863      56.290  -2.154    5.170  0.00  0.00     0.000 S
ATOM    381   O  NTO I 863      55.220  -2.154    4.130  0.00  0.00     0.000 OA
ATOM    382   O  NTO I 863      55.950  -3.142    6.250  0.00  0.00     0.000 OA
ATOM    383   O  NTO I 863      57.600  -2.540    4.560  0.00  0.00     0.000 OA
ATOM    384  C1  NTO I 863      55.460   0.099    7.930  0.00  0.00     0.000 C
ATOM    385  C4  NTO I 863      57.360   1.102    8.930  0.00  0.00     0.000 C
ATOM    386  C5  NTO I 863      58.080   2.437    9.070  0.00  0.00     0.000 C
ATOM    387  O5  NTO I 863      59.110   2.367   10.070  0.00  0.00     0.000 O
ATOM    388   C  NTO I 863      57.040   3.480    9.460  0.00  0.00     0.000 C
ATOM    389   O  NTO I 863      57.170   4.068   10.560  0.00  0.00     0.000 OA
ATOM    390   O  NTO I 863      56.100   3.699    8.660  0.00  0.00     0.000 OA
ATOM    391   O  NTO I 863      64.660  -0.816   12.690  0.00  0.00     0.000 OA
ATOM    392   O  NTO I 863      63.550   0.694   13.860  0.00  0.00     0.000 OA
ATOM    393   C  NTO I 863      64.600   0.235   13.360  0.00  0.00     0.000 C
BRANCH 454 394
ATOM    394  O4  NTO I 863      68.180   0.776   15.810  0.00  0.00     0.000 O
BRANCH 394 398
ATOM    395  C1  NTO I 863      68.040  -0.959   19.650  0.00  0.00     0.000 C
ATOM    396  C2  NTO I 863      67.120  -1.541   18.580  0.00  0.00     0.000 C
ATOM    397  C3  NTO I 863      67.610  -1.151   17.190  0.00  0.00     0.000 C
ATOM    398  C4  NTO I 863      67.720   0.374   17.110  0.00  0.00     0.000 C
ATOM    399  C5  NTO I 863      68.700   0.799   18.190  0.00  0.00     0.000 C
ATOM    400  O5  NTO I 863      68.170   0.461   19.480  0.00  0.00     0.000 O
ATOM    401   O  NTO I 863      69.340  -1.573   19.590  0.00  0.00     0.000 O
ATOM    402   C  NTO I 863      69.470  -2.490   20.680  0.00  0.00     0.000 C
ATOM    403   S  NTO I 863      65.730  -3.471   19.540  0.00  0.00     0.000 S
ATOM    404   O  NTO I 863      64.640  -3.818   18.580  0.00  0.00     0.000 OA
ATOM    405   O  NTO I 863      65.270  -2.363   20.440  0.00  0.00     0.000 OA
ATOM    406   O  NTO I 863      66.060  -4.671   20.380  0.00  0.00     0.000 OA
ATOM    407   N  NTO I 863      67.060  -3.005   18.710  0.00  0.00     0.000 N
ATOM    409  HD  NTO I 863      67.560  -2.505   19.210  0.00  0.00     0.000 HD
ATOM    409   O  NTO I 863      66.690  -1.624   16.210  0.00  0.00     0.000 O
ATOM    411  HD  NTO I 863      67.190  -1.124   16.710  0.00  0.00     0.000 HD
ATOM    411  C3  NTO I 863      58.360   0.002    8.600  0.00  0.00     0.000 C
ATOM    412   O  NTO I 863      57.710  -1.271    8.630  0.00  0.00     0.000 O
ATOM    414  HD  NTO I 863      58.210  -0.771    9.130  0.00  0.00     0.000 HD
ATOM    414  C2  NTO I 863      59.480   0.005    9.640  0.00  0.00     0.000 C
ATOM    415   O  NTO I 863      60.480  -0.954    9.300  0.00  0.00     0.000 O
ATOM    417  HD  NTO I 863      60.980  -0.454    9.800  0.00  0.00     0.000 HD
ATOM    417  C1  NTO I 863      60.110   1.394    9.730  0.00  0.00     0.000 C
ATOM    418  C4  NTO I 863      61.950   2.520   10.740  0.00  0.00     0.000 C
ATOM    419  C5  NTO I 863      63.400   2.094   10.550  0.00  0.00     0.000 C
ATOM    420  O5  NTO I 863      64.290   3.218   10.600  0.00  0.00     0.000 O
ATOM    421   C  NTO I 863      63.550   1.382    9.200  0.00  0.00     0.000 C
ATOM    422   O  NTO I 863      63.300   2.263    8.110  0.00  0.00     0.000 O
ATOM    423   S  NTO I 863      63.230   1.750    6.770  0.00  0.00     0.000 S
ATOM    424   O  NTO I 863      61.840   1.240    6.510  0.00  0.00     0.000 OA
ATOM    425   O  NTO I 863      64.210   0.632    6.610  0.00  0.00     0.000 OA
ATOM    426   O  NTO I 863      63.540   2.842    5.790  0.00  0.00     0.000 OA
ATOM    427  C3  NTO I 863      61.810   3.287   12.060  0.00  0.00     0.000 C
ATOM    428   O  NTO I 863      60.500   3.851   12.150  0.00  0.00     0.000 O
ATOM    429   S  NTO I 863      59.890   3.588   13.410  0.00  0.00     0.000 S
ATOM    430   O  NTO I 863      60.740   4.131   14.520  0.00  0.00     0.000 OA
ATOM    431   O  NTO I 863      58.540   4.248   13.450  0.00  0.00     0.000 OA
ATOM    432   O  NTO I 863      59.720   2.109   13.600  0.00  0.00     0.000 OA
ATOM    433  C2  NTO I 863      62.840   4.417   12.100  0.00  0.00     0.000 C
ATOM    434   S  NTO I 863      63.770   6.372   13.400  0.00  0.00     0.000 S
ATOM    435   O  NTO I 863      65.100   5.970   13.970  0.00  0.00     0.000 OA
ATOM    436   O  NTO I 863      63.190   7.482   14.220  0.00  0.00     0.000 OA
ATOM    437   O  NTO I 863      63.950   6.835   11.980  0.00  0.00     0.000 OA
ATOM    438  C1  NTO I 863      64.250   3.859   11.890  0.00  0.00     0.000 C
ATOM    439  C4  NTO I 863      65.830   2.302   12.770  0.00  0.00     0.000 C
ATOM    440  C5  NTO I 863      65.900   1.017   13.580  0.00  0.00     0.000 C
ATOM    441  O5  NTO I 863      66.030   1.332   14.980  0.00  0.00     0.000 O
ATOM    442   C  NTO I 863      64.600   0.235   13.360  0.00  0.00     0.000 C
ATOM    443   O  NTO I 863      64.660  -0.816   12.690  0.00  0.00     0.000 OA
ATOM    444   O  NTO I 863      63.550   0.694   13.860  0.00  0.00     0.000 OA
ATOM    445  C3  NTO I 863      66.930   3.249   13.260  0.00  0.00     0.000 C
ATOM    446   O  NTO I 863      67.550   3.876   12.140  0.00  0.00     0.000 O
ATOM    448  HD  NTO I 863      68.050   4.376   12.640  0.00  0.00     0.000 HD
ATOM    448  C2  NTO I 863      67.980   2.466   14.050  0.00  0.00     0.000 C
ATOM    449   O  NTO I 863      69.050   3.336   14.450  0.00  0.00     0.000 O
ATOM    450   S  NTO I 863      70.320   2.810   14.060  0.00  0.00     0.000 S
ATOM    451   O  NTO I 863      70.480   1.423   14.620  0.00  0.00     0.000 OA
ATOM    452   O  NTO I 863      70.430   2.770   12.570  0.00  0.00     0.000 OA
ATOM    453   O  NTO I 863      71.400   3.690   14.620  0.00  0.00     0.000 OA
ATOM    454  C1  NTO I 863      67.350   1.817   15.280  0.00  0.00     0.000 C
ATOM    455   N  NTO I 863      62.770   5.092   13.410  0.00  0.00     0.000 N
ATOM    457  HD  NTO I 863      63.270   5.592   13.910  0.00  0.00     0.000 HD
ATOM    457   N  NTO I 863      56.410  -0.655    5.810  0.00  0.00     0.000 N
ATOM    459  HD  NTO I 863      56.910  -0.155    6.310  0.00  0.00     0.000 HD
ATOM    459   O  NTO I 863      52.700   2.498    5.970  0.00  0.00     0.000 O
ATOM    461  HD  NTO I 863      53.200   2.998    6.470  0.00  0.00     0.000 HD
ATOM    461  C4  NTO I 863      53.240   1.309    6.550  0.00  0.00     0.000 C
ATOM    462  C5  NTO I 863      53.600   1.595    8.010  0.00  0.00     0.000 C
ATOM    463  O5  NTO I 863      54.240   0.447    8.600  0.00  0.00     0.000 O
ATOM    464   C  NTO I 863      52.290   1.856    8.770  0.00  0.00     0.000 C
ATOM    465   O  NTO I 863      52.500   2.059   10.170  0.00  0.00     0.000 O
ATOM    466   S  NTO I 863      51.420   1.841   11.100  0.00  0.00     0.000 S
ATOM    467   O  NTO I 863      51.020   0.399   11.040  0.00  0.00     0.000 OA
ATOM    468   O  NTO I 863      50.250   2.707   10.740  0.00  0.00     0.000 OA
ATOM    469   O  NTO I 863      51.890   2.175   12.480  0.00  0.00     0.000 OA
ATOM    470  C3  NTO I 863      54.480   0.865    5.760  0.00  0.00     0.000 C
ATOM    471   O  NTO I 863      54.100   0.444    4.450  0.00  0.00     0.000 O
ATOM    473  HD  NTO I 863      54.600   0.944    4.950  0.00  0.00     0.000 HD
ATOM    473  C2  NTO I 863      55.150  -0.302    6.490  0.00  0.00     0.000 C
ATOM    474   S  NTO I 863      56.290  -2.154    5.170  0.00  0.00     0.000 S
ATOM    475   O  NTO I 863      55.220  -2.154    4.130  0.00  0.00     0.000 OA
ATOM    476   O  NTO I 863      55.950  -3.142    6.250  0.00  0.00     0.000 OA
ATOM    477   O  NTO I 863      57.600  -2.540    4.560  0.00  0.00     0.000 OA
ATOM    478  C1  NTO I 863      55.460   0.099    7.930  0.00  0.00     0.000 C
ATOM    479  C4  NTO I 863      57.360   1.102    8.930  0.00  0.00     0.000 C
ATOM    480  C5  NTO I 863      58.080   2.437    9.070  0.00  0.00     0.000 C
ATOM    481  O5  NTO I 863      59.110   2.367   10.070  0.00  0.00     0.000 O
ATOM    482   C  NTO I 863      57.040   3.480    9.460  0.00  0.00     0.000 C
ATOM    483   O  NTO I 863      57.170   4.068   10.560  0.00  0.00     0.000 OA
ATOM    484   O  NTO I 863      56.100   3.699    8.660  0.00  0.00     0.000 OA
ATOM    485   C  NTO I 863      68.860   2.318   18.180  0.00  0.00     0.000 C
ATOM    486   O  NTO I 863      67.700   2.936   18.740  0.00  0.00     0.000 O
ATOM    487   S  NTO I 863      67.570   4.360   18.720  0.00  0.00     0.000 S
ATOM    488   O  NTO I 863      66.930   4.767   17.430  0.00  0.00     0.000 OA
ATOM    489   O  NTO I 863      68.920   4.997   18.850  0.00  0.00     0.000 OA
ATOM    490   O  NTO I 863      66.710   4.803   19.870  0.00  0.00     0.000 OA
ENDBRANCH 394 398
ENDBRANCH 454 394
ENDBRANCH 297 439
ENDBRANCH 438 297
ENDBRANCH 199 418
ENDBRANCH 417 199
ENDBRANCH 100 479
ENDBRANCH 478 100
TORSDOF 8