ROOT
ATOM      1  C1  ASG A 221      28.350 -16.184   82.560  0.00  0.00     0.000 C
ATOM      2  C2  ASG A 221      27.210 -16.346   81.500  0.00  0.00     0.000 C
ATOM      3  C3  ASG A 221      27.740 -16.154   80.090  0.00  0.00     0.000 C
ATOM      4  C4  ASG A 221      28.360 -14.783   79.990  0.00  0.00     0.000 C
ATOM      5  C5  ASG A 221      29.670 -14.964   80.790  0.00  0.00     0.000 C
ATOM      6  O5  ASG A 221      29.300 -15.067   82.220  0.00  0.00     0.000 O
ATOM      7   C  ASG A 221      25.590 -18.088   80.550  0.00  0.00     0.000 C
ATOM      8   C  ASG A 221      24.950 -19.483   80.690  0.00  0.00     0.000 C
ATOM      9   N  ASG A 221      26.400 -17.565   81.650  0.00  0.00     0.000 N
ATOM     11  HD  ASG A 221      26.900 -17.065   82.150  0.00  0.00     0.000 HD
ATOM     11   O  ASG A 221      25.270 -17.392   79.650  0.00  0.00     0.000 OA
ATOM     12   O  ASG A 221      27.490 -13.778   80.480  0.00  0.00     0.000 O
ATOM     13   O  ASG A 221      28.770 -12.002   81.780  0.00  0.00     0.000 OA
ATOM     14   O  ASG A 221      26.810 -11.327   80.640  0.00  0.00     0.000 OA
ATOM     15   O  ASG A 221      28.770 -11.860   79.400  0.00  0.00     0.000 OA
ATOM     16   S  ASG A 221      27.970 -12.200   80.570  0.00  0.00     0.000 S
ATOM     17   O  ASG A 221      31.960 -13.906   81.320  0.00  0.00     0.000 O
ATOM     19  HD  ASG A 221      32.460 -13.406   81.820  0.00  0.00     0.000 HD
ATOM     19   C  ASG A 221      30.840 -13.975   80.440  0.00  0.00     0.000 C
ENDROOT
BRANCH 1 20
ATOM     20  O4  ASG A 221      27.890 -16.146   83.910  0.00  0.00     0.000 O
BRANCH 20 24
ATOM     21  C1  BDP A 220      28.670 -17.662   87.590  0.00  0.00     0.000 C
ATOM     22  C2  BDP A 220      29.800 -16.814   87.010  0.00  0.00     0.000 C
ATOM     23  C3  BDP A 220      29.400 -16.050   85.740  0.00  0.00     0.000 C
ATOM     24  C4  BDP A 220      28.630 -16.948   84.770  0.00  0.00     0.000 C
ATOM     25  C5  BDP A 220      27.540 -17.682   85.550  0.00  0.00     0.000 C
ATOM     26  O5  BDP A 220      28.140 -18.468   86.560  0.00  0.00     0.000 O
ATOM     27   O  BDP A 220      30.250 -15.913   88.000  0.00  0.00     0.000 O
ATOM     29  HD  BDP A 220      30.750 -15.413   88.500  0.00  0.00     0.000 HD
ATOM     29   O  BDP A 220      30.560 -15.551   85.100  0.00  0.00     0.000 O
ATOM     31  HD  BDP A 220      31.060 -15.051   85.600  0.00  0.00     0.000 HD
ATOM     31   O  BDP A 220      27.220 -19.530   84.060  0.00  0.00     0.000 OA
ATOM     32   C  BDP A 220      26.680 -18.552   84.630  0.00  0.00     0.000 C
ATOM     33   O  BDP A 220      25.480 -18.238   84.500  0.00  0.00     0.000 OA
BRANCH 21 34
ATOM     34  O3  BDP A 220      29.190 -18.468   88.640  0.00  0.00     0.000 O
BRANCH 34 37
ATOM     35  C1  ASG A 219      27.530 -18.344   92.010  0.00  0.00     0.000 C
ATOM     36  C2  ASG A 219      28.430 -17.874   90.810  0.00  0.00     0.000 C
ATOM     37  C3  ASG A 219      28.250 -18.793   89.610  0.00  0.00     0.000 C
ATOM     38  C4  ASG A 219      28.510 -20.236   90.010  0.00  0.00     0.000 C
ATOM     39  C5  ASG A 219      27.440 -20.644   91.050  0.00  0.00     0.000 C
ATOM     40  O5  ASG A 219      27.690 -19.816   92.250  0.00  0.00     0.000 O
ATOM     41   O  ASG A 219      30.220 -15.879   91.690  0.00  0.00     0.000 OA
ATOM     42   C  ASG A 219      29.300 -15.481   91.060  0.00  0.00     0.000 C
ATOM     43   C  ASG A 219      29.110 -13.964   90.860  0.00  0.00     0.000 C
ATOM     44   N  ASG A 219      28.350 -16.434   90.500  0.00  0.00     0.000 N
ATOM     46  HD  ASG A 219      28.850 -15.934   91.000  0.00  0.00     0.000 HD
ATOM     46   O  ASG A 219      29.820 -20.487   90.510  0.00  0.00     0.000 O
ATOM     47   O  ASG A 219      31.090 -21.359   88.550  0.00  0.00     0.000 OA
ATOM     48   O  ASG A 219      29.950 -22.995   89.920  0.00  0.00     0.000 OA
ATOM     49   O  ASG A 219      31.880 -21.955   90.750  0.00  0.00     0.000 OA
ATOM     50   S  ASG A 219      30.710 -21.744   89.910  0.00  0.00     0.000 S
ATOM     51   O  ASG A 219      26.590 -22.652   92.420  0.00  0.00     0.000 O
ATOM     53  HD  ASG A 219      27.090 -22.152   92.920  0.00  0.00     0.000 HD
ATOM     53   C  ASG A 219      27.410 -22.181   91.350  0.00  0.00     0.000 C
BRANCH 35 54
ATOM     54  O4  ASG A 219      27.670 -17.558   93.180  0.00  0.00     0.000 O
BRANCH 54 58
ATOM     55  C1  BDP A 218      25.740 -16.250   96.410  0.00  0.00     0.000 C
ATOM     56  C2  BDP A 218      26.190 -17.703   96.530  0.00  0.00     0.000 C
ATOM     57  C3  BDP A 218      27.220 -18.020   95.460  0.00  0.00     0.000 C
ATOM     58  C4  BDP A 218      26.630 -17.708   94.080  0.00  0.00     0.000 C
ATOM     59  C5  BDP A 218      26.130 -16.267   94.090  0.00  0.00     0.000 C
ATOM     60  O5  BDP A 218      25.180 -16.079   95.120  0.00  0.00     0.000 O
ATOM     61   O  BDP A 218      26.750 -17.954   97.800  0.00  0.00     0.000 O
ATOM     63  HD  BDP A 218      27.250 -17.454   98.300  0.00  0.00     0.000 HD
ATOM     63   O  BDP A 218      27.560 -19.380   95.550  0.00  0.00     0.000 O
ATOM     65  HD  BDP A 218      28.060 -18.880   96.050  0.00  0.00     0.000 HD
ATOM     65   O  BDP A 218      26.050 -14.967   92.080  0.00  0.00     0.000 OA
ATOM     66   O  BDP A 218      24.580 -16.600   92.300  0.00  0.00     0.000 OA
ATOM     67   C  BDP A 218      25.530 -15.914   92.720  0.00  0.00     0.000 C
BRANCH 55 68
ATOM     68  O3  BDP A 218      24.790 -15.958   97.420  0.00  0.00     0.000 O
BRANCH 68 71
ATOM     69  C1  ASG A 217      24.700 -12.748   99.320  0.00  0.00     0.000 C
ATOM     70  C2  ASG A 217      25.230 -14.152   98.880  0.00  0.00     0.000 C
ATOM     71  C3  ASG A 217      24.560 -14.596   97.580  0.00  0.00     0.000 C
ATOM     72  C4  ASG A 217      23.040 -14.589   97.770  0.00  0.00     0.000 C
ATOM     73  C5  ASG A 217      22.600 -13.114   98.020  0.00  0.00     0.000 C
ATOM     74  O5  ASG A 217      23.200 -12.709   99.310  0.00  0.00     0.000 O
ATOM     75   O  ASG A 217      26.700 -15.617  100.780  0.00  0.00     0.000 OA
ATOM     76   C  ASG A 217      27.350 -15.000  100.000  0.00  0.00     0.000 C
ATOM     77   C  ASG A 217      28.880 -15.152  100.000  0.00  0.00     0.000 C
ATOM     78   N  ASG A 217      26.690 -14.266   98.920  0.00  0.00     0.000 N
ATOM     80  HD  ASG A 217      27.190 -13.766   99.420  0.00  0.00     0.000 HD
ATOM     80   O  ASG A 217      22.620 -15.433   98.830  0.00  0.00     0.000 O
ATOM     81   O  ASG A 217      21.950 -17.219   97.140  0.00  0.00     0.000 OA
ATOM     82   O  ASG A 217      20.280 -16.366   98.640  0.00  0.00     0.000 OA
ATOM     83   O  ASG A 217      22.030 -17.794   99.440  0.00  0.00     0.000 OA
ATOM     84   S  ASG A 217      21.680 -16.744   98.500  0.00  0.00     0.000 S
ATOM     85   O  ASG A 217      20.620 -11.581   97.460  0.00  0.00     0.000 O
ATOM     87  HD  ASG A 217      21.120 -11.081   97.960  0.00  0.00     0.000 HD
ATOM     87   C  ASG A 217      21.060 -12.845   97.940  0.00  0.00     0.000 C
BRANCH 69 88
ATOM     88  O4  ASG A 217      25.290 -12.257  100.510  0.00  0.00     0.000 O
BRANCH 88 92
ATOM     89  C1  BDP A 216      25.880  -8.618  102.260  0.00  0.00     0.000 C
ATOM     90  C2  BDP A 216      24.440  -9.098  102.240  0.00  0.00     0.000 C
ATOM     91  C3  BDP A 216      24.380 -10.585  101.890  0.00  0.00     0.000 C
ATOM     92  C4  BDP A 216      25.190 -10.883  100.630  0.00  0.00     0.000 C
ATOM     93  C5  BDP A 216      26.570 -10.220  100.690  0.00  0.00     0.000 C
ATOM     94  O5  BDP A 216      26.450  -8.842  100.990  0.00  0.00     0.000 O
ATOM     95   O  BDP A 216      25.920  -7.244  102.590  0.00  0.00     0.000 OA
ATOM     96   O  BDP A 216      23.850  -8.872  103.500  0.00  0.00     0.000 O
ATOM     98  HD  BDP A 216      24.350  -8.372  104.000  0.00  0.00     0.000 HD
ATOM     98   O  BDP A 216      23.040 -10.982  101.700  0.00  0.00     0.000 O
ATOM    100  HD  BDP A 216      23.540 -10.482  102.200  0.00  0.00     0.000 HD
ATOM    100   O  BDP A 216      28.460 -10.822   99.380  0.00  0.00     0.000 OA
ATOM    101   O  BDP A 216      26.690 -10.050   98.310  0.00  0.00     0.000 OA
ATOM    102   C  BDP A 216      27.300 -10.377   99.360  0.00  0.00     0.000 C
ENDBRANCH 88 92
ENDBRANCH 69 88
ENDBRANCH 68 71
ENDBRANCH 55 68
ENDBRANCH 54 58
ENDBRANCH 35 54
ENDBRANCH 34 37
ENDBRANCH 21 34
ENDBRANCH 20 24
ENDBRANCH 1 20
TORSDOF 10