ROOT
ATOM      1  C1  IXD A   2      29.120  16.195   21.000  0.00  0.00     0.000 C
ATOM      2  C2  IXD A   2      29.450  15.603   19.630  0.00  0.00     0.000 C
ATOM      3  C3  IXD A   2      30.950  15.325   19.410  0.00  0.00     0.000 C
ATOM      4  C4  IXD A   2      31.760  15.681   20.640  0.00  0.00     0.000 C
ATOM      5  C5  IXD A   2      31.470  16.840   21.240  0.00  0.00     0.000 C
ATOM      6  O5  IXD A   2      30.080  17.223   21.280  0.00  0.00     0.000 O
ATOM      7   O  IXD A   2      28.870  14.483   16.890  0.00  0.00     0.000 OA
ATOM      8   S  IXD A   2      27.900  14.409   18.010  0.00  0.00     0.000 S
ATOM      9   O  IXD A   2      28.650  14.446   19.370  0.00  0.00     0.000 O
ATOM     10   O  IXD A   2      27.110  13.157   17.840  0.00  0.00     0.000 OA
ATOM     11   O  IXD A   2      27.060  15.636   17.930  0.00  0.00     0.000 OA
ATOM     12   O  IXD A   2      31.200  13.965   19.020  0.00  0.00     0.000 O
ATOM     14  HD  IXD A   2      31.700  14.465   19.520  0.00  0.00     0.000 HD
ATOM     14   O  IXD A   2      33.640  17.240   22.070  0.00  0.00     0.000 OA
ATOM     15   O  IXD A   2      32.210  18.874   22.040  0.00  0.00     0.000 OA
ATOM     16   C  IXD A   2      32.500  17.695   21.810  0.00  0.00     0.000 C
ENDROOT
BRANCH 1 17
ATOM     17  O4  SGN A 377      28.180  16.059   21.940  0.00  0.00     0.000 O
BRANCH 17 21
ATOM     18  C1  SGN A 377      25.470  18.646   23.850  0.00  0.00     0.000 C
ATOM     19  C2  SGN A 377      26.390  19.259   22.830  0.00  0.00     0.000 C
ATOM     20  C3  SGN A 377      26.920  18.185   21.890  0.00  0.00     0.000 C
ATOM     21  C4  SGN A 377      27.600  17.095   22.740  0.00  0.00     0.000 C
ATOM     22  C5  SGN A 377      26.590  16.549   23.760  0.00  0.00     0.000 C
ATOM     23  O5  SGN A 377      26.130  17.630   24.530  0.00  0.00     0.000 O
ATOM     24   O  SGN A 377      24.320  18.103   23.230  0.00  0.00     0.000 OA
ATOM     25   N  SGN A 377      25.640  20.289   22.140  0.00  0.00     0.000 N
ATOM     27  HD  SGN A 377      26.140  20.789   22.640  0.00  0.00     0.000 HD
ATOM     27   S  SGN A 377      26.030  21.813   22.430  0.00  0.00     0.000 S
ATOM     28   O  SGN A 377      24.820  22.638   22.480  0.00  0.00     0.000 OA
ATOM     29   O  SGN A 377      26.730  21.903   23.720  0.00  0.00     0.000 OA
ATOM     30   O  SGN A 377      26.880  22.151   21.300  0.00  0.00     0.000 OA
ATOM     31   O  SGN A 377      27.820  18.840   21.020  0.00  0.00     0.000 O
ATOM     33  HD  SGN A 377      28.320  19.340   21.520  0.00  0.00     0.000 HD
ATOM     33   O  SGN A 377      28.590  15.492   24.320  0.00  0.00     0.000 O
ATOM     34   S  SGN A 377      29.390  14.173   24.310  0.00  0.00     0.000 S
ATOM     35   O  SGN A 377      30.600  14.481   25.080  0.00  0.00     0.000 OA
ATOM     36   O  SGN A 377      28.590  13.154   24.980  0.00  0.00     0.000 OA
ATOM     37   O  SGN A 377      29.690  13.845   22.910  0.00  0.00     0.000 OA
ATOM     38   C  SGN A 377      27.230  15.530   24.690  0.00  0.00     0.000 C
ENDBRANCH 17 21
ENDBRANCH 1 17
TORSDOF 2