ROOT
ATOM      1  C1  IXD A 379      20.460  19.697   22.530  0.00  0.00     0.000 C
ATOM      2  C2  IXD A 379      21.360  20.864   22.940  0.00  0.00     0.000 C
ATOM      3  C3  IXD A 379      21.690  20.731   24.420  0.00  0.00     0.000 C
ATOM      4  C4  IXD A 379      22.380  19.420   24.620  0.00  0.00     0.000 C
ATOM      5  C5  IXD A 379      21.690  18.376   24.190  0.00  0.00     0.000 C
ATOM      6  O5  IXD A 379      21.090  18.457   22.870  0.00  0.00     0.000 O
ATOM      7   O  IXD A 379      22.890  22.961   20.820  0.00  0.00     0.000 OA
ATOM      8   O  IXD A 379      23.370  20.825   19.800  0.00  0.00     0.000 OA
ATOM      9   O  IXD A 379      21.090  21.510   20.220  0.00  0.00     0.000 OA
ATOM     10   S  IXD A 379      22.480  21.542   20.740  0.00  0.00     0.000 S
ATOM     11   O  IXD A 379      22.530  20.870   22.130  0.00  0.00     0.000 O
ATOM     12   O  IXD A 379      22.530  21.756   24.920  0.00  0.00     0.000 O
ATOM     14  HD  IXD A 379      23.030  22.256   25.420  0.00  0.00     0.000 HD
ATOM     14   C  IXD A 379      21.520  17.255   25.070  0.00  0.00     0.000 C
ATOM     15   O  IXD A 379      22.500  16.902   25.790  0.00  0.00     0.000 OA
ATOM     16   O  IXD A 379      20.390  16.734   25.100  0.00  0.00     0.000 OA
ENDROOT
BRANCH 1 17
ATOM     17  O4  SGN A 378      19.880  20.195   23.630  0.00  0.00     0.000 O
BRANCH 17 21
ATOM     18  C1  SGN A 378      16.400  21.586   21.870  0.00  0.00     0.000 C
ATOM     19  C2  SGN A 378      17.280  22.651   22.510  0.00  0.00     0.000 C
ATOM     20  C3  SGN A 378      18.690  22.123   22.750  0.00  0.00     0.000 C
ATOM     21  C4  SGN A 378      18.610  20.825   23.540  0.00  0.00     0.000 C
ATOM     22  C5  SGN A 378      17.660  19.855   22.870  0.00  0.00     0.000 C
ATOM     23  O5  SGN A 378      16.380  20.423   22.670  0.00  0.00     0.000 O
ATOM     24   O  SGN A 378      16.890  21.278   20.590  0.00  0.00     0.000 OA
ATOM     25   N  SGN A 378      17.360  23.821   21.660  0.00  0.00     0.000 N
ATOM     27  HD  SGN A 378      17.860  24.321   22.160  0.00  0.00     0.000 HD
ATOM     27   S  SGN A 378      16.420  25.082   21.940  0.00  0.00     0.000 S
ATOM     28   O  SGN A 378      16.660  26.026   20.850  0.00  0.00     0.000 OA
ATOM     29   O  SGN A 378      15.050  24.560   21.990  0.00  0.00     0.000 OA
ATOM     30   O  SGN A 378      16.800  25.647   23.230  0.00  0.00     0.000 OA
ATOM     31   O  SGN A 378      19.400  23.108   23.460  0.00  0.00     0.000 O
ATOM     33  HD  SGN A 378      19.900  23.608   23.960  0.00  0.00     0.000 HD
ATOM     33   C  SGN A 378      17.480  18.670   23.790  0.00  0.00     0.000 C
ATOM     34   O  SGN A 378      16.550  19.066   24.770  0.00  0.00     0.000 O
ATOM     35   S  SGN A 378      15.400  18.083   25.070  0.00  0.00     0.000 S
ATOM     36   O  SGN A 378      14.970  18.259   26.440  0.00  0.00     0.000 OA
ATOM     37   O  SGN A 378      14.330  18.436   24.140  0.00  0.00     0.000 OA
ATOM     38   O  SGN A 378      15.920  16.748   24.800  0.00  0.00     0.000 OA
ENDBRANCH 17 21
ENDBRANCH 1 17
TORSDOF 2