ROOT
ATOM      1  C1  H1S A 601      26.680  11.846   14.380  0.00  0.00     0.000 C
ATOM      2  C2  H1S A 601      26.070  12.411   15.670  0.00  0.00     0.000 C
ATOM      3  C3  H1S A 601      27.090  13.302   16.370  0.00  0.00     0.000 C
ATOM      4  C4  H1S A 601      27.830  14.157   15.340  0.00  0.00     0.000 C
ATOM      5  C5  H1S A 601      27.710  13.924   13.970  0.00  0.00     0.000 C
ATOM      6  O5  H1S A 601      26.930  12.933   13.470  0.00  0.00     0.000 O
ATOM      7  C4  H1S A 601      28.260  10.364   13.460  0.00  0.00     0.000 C
ATOM      8  C5  H1S A 601      28.040   8.863   13.670  0.00  0.00     0.000 C
ATOM      9  C3  H1S A 601      29.740  10.599   13.140  0.00  0.00     0.000 C
ATOM     10  O5  H1S A 601      28.400   8.150   12.470  0.00  0.00     0.000 O
ATOM     11   C  H1S A 601      26.560   8.597   13.980  0.00  0.00     0.000 C
ATOM     12  C2  H1S A 601      30.120   9.783   11.910  0.00  0.00     0.000 C
ATOM     13   O  H1S A 601      29.950  11.989   12.880  0.00  0.00     0.000 O
ATOM     15  HD  H1S A 601      30.450  12.489   13.380  0.00  0.00     0.000 HD
ATOM     15  C1  H1S A 601      29.800   8.305   12.150  0.00  0.00     0.000 C
ATOM     16   O  H1S A 601      25.710   8.985   12.900  0.00  0.00     0.000 O
ATOM     17   N  H1S A 601      31.550   9.961   11.620  0.00  0.00     0.000 N
ATOM     19  HD  H1S A 601      32.050  10.461   12.120  0.00  0.00     0.000 HD
ATOM     19   O  H1S A 601      30.600   7.803   13.220  0.00  0.00     0.000 OA
ATOM     20   S  H1S A 601      24.290   9.044   13.070  0.00  0.00     0.000 S
ATOM     21   S  H1S A 601      31.880   9.642   10.050  0.00  0.00     0.000 S
ATOM     22   O  H1S A 601      24.180  10.327   13.840  0.00  0.00     0.000 OA
ATOM     23   O  H1S A 601      24.060   7.745   13.780  0.00  0.00     0.000 OA
ATOM     24   O  H1S A 601      23.850   9.183   11.640  0.00  0.00     0.000 OA
ATOM     25   O  H1S A 601      30.780  10.196    9.180  0.00  0.00     0.000 OA
ATOM     26   O  H1S A 601      33.180  10.288    9.670  0.00  0.00     0.000 OA
ATOM     27   O  H1S A 601      31.980   8.160    9.850  0.00  0.00     0.000 OA
ATOM     28   S  H1S A 601      23.880  13.001   16.260  0.00  0.00     0.000 S
ATOM     29   O  H1S A 601      23.770  11.543   16.600  0.00  0.00     0.000 OA
ATOM     30   O  H1S A 601      24.190  13.779   17.510  0.00  0.00     0.000 OA
ATOM     31   O  H1S A 601      22.580  13.480   15.680  0.00  0.00     0.000 OA
ATOM     32   O  H1S A 601      24.930  13.197   15.310  0.00  0.00     0.000 O
ATOM     33   O  H1S A 601      28.040  12.487   17.070  0.00  0.00     0.000 O
ATOM     35  HD  H1S A 601      28.540  12.987   17.570  0.00  0.00     0.000 HD
ATOM     35   O  H1S A 601      29.330  15.608   13.490  0.00  0.00     0.000 OA
ATOM     36   C  H1S A 601      28.480  14.827   13.000  0.00  0.00     0.000 C
ATOM     37   O  H1S A 601      28.220  14.732   11.790  0.00  0.00     0.000 OA
ENDROOT
BRANCH 61 38
ATOM     38  O4  H1S A 601      27.900  11.106   14.650  0.00  0.00     0.000 O
BRANCH 38 42
ATOM     39  C1  H1S A 601      29.800   8.305   12.150  0.00  0.00     0.000 C
ATOM     40  C2  H1S A 601      30.120   9.783   11.910  0.00  0.00     0.000 C
ATOM     41  C3  H1S A 601      29.740  10.599   13.140  0.00  0.00     0.000 C
ATOM     42  C4  H1S A 601      28.260  10.364   13.460  0.00  0.00     0.000 C
ATOM     43  C5  H1S A 601      28.040   8.863   13.670  0.00  0.00     0.000 C
ATOM     44  O5  H1S A 601      28.400   8.150   12.470  0.00  0.00     0.000 O
ATOM     45   O  H1S A 601      30.600   7.803   13.220  0.00  0.00     0.000 OA
ATOM     46   O  H1S A 601      30.780  10.196    9.180  0.00  0.00     0.000 OA
ATOM     47   O  H1S A 601      33.180  10.288    9.670  0.00  0.00     0.000 OA
ATOM     48   O  H1S A 601      31.980   8.160    9.850  0.00  0.00     0.000 OA
ATOM     49   N  H1S A 601      31.550   9.961   11.620  0.00  0.00     0.000 N
ATOM     51  HD  H1S A 601      32.050  10.461   12.120  0.00  0.00     0.000 HD
ATOM     51   S  H1S A 601      31.880   9.642   10.050  0.00  0.00     0.000 S
ATOM     52   O  H1S A 601      29.950  11.989   12.880  0.00  0.00     0.000 O
ATOM     54  HD  H1S A 601      30.450  12.489   13.380  0.00  0.00     0.000 HD
ATOM     54   S  H1S A 601      23.880  13.001   16.260  0.00  0.00     0.000 S
ATOM     55   C  H1S A 601      28.480  14.827   13.000  0.00  0.00     0.000 C
ATOM     56   O  H1S A 601      23.770  11.543   16.600  0.00  0.00     0.000 OA
ATOM     57   O  H1S A 601      24.190  13.779   17.510  0.00  0.00     0.000 OA
ATOM     58   O  H1S A 601      22.580  13.480   15.680  0.00  0.00     0.000 OA
ATOM     59   O  H1S A 601      29.330  15.608   13.490  0.00  0.00     0.000 OA
ATOM     60   O  H1S A 601      28.220  14.732   11.790  0.00  0.00     0.000 OA
ATOM     61  C1  H1S A 601      26.680  11.846   14.380  0.00  0.00     0.000 C
ATOM     62  C2  H1S A 601      26.070  12.411   15.670  0.00  0.00     0.000 C
ATOM     63  O5  H1S A 601      26.930  12.933   13.470  0.00  0.00     0.000 O
ATOM     64  C3  H1S A 601      27.090  13.302   16.370  0.00  0.00     0.000 C
ATOM     65   O  H1S A 601      24.930  13.197   15.310  0.00  0.00     0.000 O
ATOM     66  C5  H1S A 601      27.710  13.924   13.970  0.00  0.00     0.000 C
ATOM     67  C4  H1S A 601      27.830  14.157   15.340  0.00  0.00     0.000 C
ATOM     68   O  H1S A 601      28.040  12.487   17.070  0.00  0.00     0.000 O
ATOM     70  HD  H1S A 601      28.540  12.987   17.570  0.00  0.00     0.000 HD
ATOM     70   C  H1S A 601      26.560   8.597   13.980  0.00  0.00     0.000 C
ATOM     71   O  H1S A 601      25.710   8.985   12.900  0.00  0.00     0.000 O
ATOM     72   S  H1S A 601      24.290   9.044   13.070  0.00  0.00     0.000 S
ATOM     73   O  H1S A 601      24.180  10.327   13.840  0.00  0.00     0.000 OA
ATOM     74   O  H1S A 601      24.060   7.745   13.780  0.00  0.00     0.000 OA
ATOM     75   O  H1S A 601      23.850   9.183   11.640  0.00  0.00     0.000 OA
ENDBRANCH 38 42
ENDBRANCH 61 38
TORSDOF 2