ROOT
ATOM      1  C1  H1S A 501      37.190   2.098   15.260  0.00  0.00     0.000 C
ATOM      2  C2  H1S A 501      38.060   1.912   16.500  0.00  0.00     0.000 C
ATOM      3  C3  H1S A 501      39.070   3.059   16.580  0.00  0.00     0.000 C
ATOM      4  C4  H1S A 501      38.370   4.372   16.220  0.00  0.00     0.000 C
ATOM      5  C5  H1S A 501      37.080   4.393   15.690  0.00  0.00     0.000 C
ATOM      6  O5  H1S A 501      36.360   3.255   15.480  0.00  0.00     0.000 O
ATOM      7  C4  H1S A 501      37.450   1.566   12.960  0.00  0.00     0.000 C
ATOM      8  C5  H1S A 501      38.560   1.297   11.940  0.00  0.00     0.000 C
ATOM      9  C3  H1S A 501      36.360   2.410   12.290  0.00  0.00     0.000 C
ATOM     10  O5  H1S A 501      38.040   0.652   10.770  0.00  0.00     0.000 O
ATOM     11   C  H1S A 501      39.610   0.377   12.580  0.00  0.00     0.000 C
ATOM     12  C2  H1S A 501      35.910   1.771   10.980  0.00  0.00     0.000 C
ATOM     13   O  H1S A 501      35.230   2.504   13.170  0.00  0.00     0.000 O
ATOM     15  HD  H1S A 501      35.730   3.004   13.670  0.00  0.00     0.000 HD
ATOM     15  C1  H1S A 501      37.120   1.516   10.080  0.00  0.00     0.000 C
ATOM     16   O  H1S A 501      40.690   0.131   11.670  0.00  0.00     0.000 O
ATOM     17   N  H1S A 501      34.970   2.672   10.300  0.00  0.00     0.000 N
ATOM     19  HD  H1S A 501      35.470   3.172   10.800  0.00  0.00     0.000 HD
ATOM     19   O  H1S A 501      37.780   2.752    9.770  0.00  0.00     0.000 OA
ATOM     20   S  H1S A 501      41.810  -0.653   12.090  0.00  0.00     0.000 S
ATOM     21   S  H1S A 501      34.290   1.945    9.010  0.00  0.00     0.000 S
ATOM     22   O  H1S A 501      42.270  -0.185   13.440  0.00  0.00     0.000 OA
ATOM     23   O  H1S A 501      41.400  -2.096   12.170  0.00  0.00     0.000 OA
ATOM     24   O  H1S A 501      42.920  -0.501   11.100  0.00  0.00     0.000 OA
ATOM     25   O  H1S A 501      35.190   2.099    7.820  0.00  0.00     0.000 OA
ATOM     26   O  H1S A 501      34.080   0.487    9.290  0.00  0.00     0.000 OA
ATOM     27   O  H1S A 501      32.970   2.591    8.720  0.00  0.00     0.000 OA
ATOM     28   O  H1S A 501      36.550   0.941   19.700  0.00  0.00     0.000 OA
ATOM     29   O  H1S A 501      37.310  -0.412   17.810  0.00  0.00     0.000 OA
ATOM     30   O  H1S A 501      38.900   0.992   19.040  0.00  0.00     0.000 OA
ATOM     31   O  H1S A 501      37.210   1.975   17.650  0.00  0.00     0.000 O
ATOM     32   S  H1S A 501      37.490   0.887   18.540  0.00  0.00     0.000 S
ATOM     33   O  H1S A 501      40.130   2.819   15.660  0.00  0.00     0.000 O
ATOM     35  HD  H1S A 501      40.630   3.319   16.160  0.00  0.00     0.000 HD
ATOM     35   O  H1S A 501      35.300   5.741   14.850  0.00  0.00     0.000 OA
ATOM     36   O  H1S A 501      37.100   6.778   15.610  0.00  0.00     0.000 OA
ATOM     37   C  H1S A 501      36.440   5.743   15.360  0.00  0.00     0.000 C
ENDROOT
BRANCH 59 38
ATOM     38  O4  H1S A 501      38.010   2.292   14.080  0.00  0.00     0.000 O
BRANCH 38 42
ATOM     39  C1  H1S A 501      37.120   1.516   10.080  0.00  0.00     0.000 C
ATOM     40  C2  H1S A 501      35.910   1.771   10.980  0.00  0.00     0.000 C
ATOM     41  C3  H1S A 501      36.360   2.410   12.290  0.00  0.00     0.000 C
ATOM     42  C4  H1S A 501      37.450   1.566   12.960  0.00  0.00     0.000 C
ATOM     43  C5  H1S A 501      38.560   1.297   11.940  0.00  0.00     0.000 C
ATOM     44  O5  H1S A 501      38.040   0.652   10.770  0.00  0.00     0.000 O
ATOM     45   O  H1S A 501      37.780   2.752    9.770  0.00  0.00     0.000 OA
ATOM     46   O  H1S A 501      34.080   0.487    9.290  0.00  0.00     0.000 OA
ATOM     47   O  H1S A 501      32.970   2.591    8.720  0.00  0.00     0.000 OA
ATOM     48   N  H1S A 501      34.970   2.672   10.300  0.00  0.00     0.000 N
ATOM     50  HD  H1S A 501      35.470   3.172   10.800  0.00  0.00     0.000 HD
ATOM     50   S  H1S A 501      34.290   1.945    9.010  0.00  0.00     0.000 S
ATOM     51   O  H1S A 501      35.190   2.099    7.820  0.00  0.00     0.000 OA
ATOM     52   O  H1S A 501      35.230   2.504   13.170  0.00  0.00     0.000 O
ATOM     54  HD  H1S A 501      35.730   3.004   13.670  0.00  0.00     0.000 HD
ATOM     54   O  H1S A 501      36.550   0.941   19.700  0.00  0.00     0.000 OA
ATOM     55   O  H1S A 501      37.310  -0.412   17.810  0.00  0.00     0.000 OA
ATOM     56   O  H1S A 501      38.900   0.992   19.040  0.00  0.00     0.000 OA
ATOM     57   O  H1S A 501      35.300   5.741   14.850  0.00  0.00     0.000 OA
ATOM     58   O  H1S A 501      37.100   6.778   15.610  0.00  0.00     0.000 OA
ATOM     59  C1  H1S A 501      37.190   2.098   15.260  0.00  0.00     0.000 C
ATOM     60  C2  H1S A 501      38.060   1.912   16.500  0.00  0.00     0.000 C
ATOM     61  O5  H1S A 501      36.360   3.255   15.480  0.00  0.00     0.000 O
ATOM     62  C3  H1S A 501      39.070   3.059   16.580  0.00  0.00     0.000 C
ATOM     63   O  H1S A 501      37.210   1.975   17.650  0.00  0.00     0.000 O
ATOM     64  C5  H1S A 501      37.080   4.393   15.690  0.00  0.00     0.000 C
ATOM     65  C4  H1S A 501      38.370   4.372   16.220  0.00  0.00     0.000 C
ATOM     66   O  H1S A 501      40.130   2.819   15.660  0.00  0.00     0.000 O
ATOM     68  HD  H1S A 501      40.630   3.319   16.160  0.00  0.00     0.000 HD
ATOM     68   S  H1S A 501      37.490   0.887   18.540  0.00  0.00     0.000 S
ATOM     69   C  H1S A 501      36.440   5.743   15.360  0.00  0.00     0.000 C
ATOM     70   C  H1S A 501      39.610   0.377   12.580  0.00  0.00     0.000 C
ATOM     71   O  H1S A 501      40.690   0.131   11.670  0.00  0.00     0.000 O
ATOM     72   S  H1S A 501      41.810  -0.653   12.090  0.00  0.00     0.000 S
ATOM     73   O  H1S A 501      42.270  -0.185   13.440  0.00  0.00     0.000 OA
ATOM     74   O  H1S A 501      41.400  -2.096   12.170  0.00  0.00     0.000 OA
ATOM     75   O  H1S A 501      42.920  -0.501   11.100  0.00  0.00     0.000 OA
ENDBRANCH 38 42
ENDBRANCH 59 38
TORSDOF 2