ROOT
ATOM      1  C1  SGN A 508      26.070  15.260   14.200  0.00  0.00     0.000 C
ATOM      2  C2  SGN A 508      24.660  15.769   13.930  0.00  0.00     0.000 C
ATOM      3  C3  SGN A 508      24.440  15.911   12.420  0.00  0.00     0.000 C
ATOM      4  C4  SGN A 508      25.510  16.826   11.840  0.00  0.00     0.000 C
ATOM      5  C5  SGN A 508      26.890  16.269   12.210  0.00  0.00     0.000 C
ATOM      6  O5  SGN A 508      27.020  16.184   13.640  0.00  0.00     0.000 O
ATOM      7   N  SGN A 508      23.670  14.846   14.490  0.00  0.00     0.000 N
ATOM      9  HD  SGN A 508      24.170  15.346   14.990  0.00  0.00     0.000 HD
ATOM      9   S  SGN A 508      23.360  15.261   16.040  0.00  0.00     0.000 S
ATOM     10   O  SGN A 508      24.600  15.076   16.870  0.00  0.00     0.000 OA
ATOM     11   O  SGN A 508      22.940  16.700   16.100  0.00  0.00     0.000 OA
ATOM     12   O  SGN A 508      22.260  14.398   16.580  0.00  0.00     0.000 OA
ATOM     13   O  SGN A 508      23.150  16.491   12.190  0.00  0.00     0.000 O
ATOM     15  HD  SGN A 508      23.650  16.991   12.690  0.00  0.00     0.000 HD
ATOM     15   O  SGN A 508      25.380  16.878   10.410  0.00  0.00     0.000 O
ATOM     17  HD  SGN A 508      25.880  17.378   10.910  0.00  0.00     0.000 HD
ATOM     17   C  SGN A 508      27.970  17.210   11.670  0.00  0.00     0.000 C
ATOM     18   O  SGN A 508      27.890  18.497   12.290  0.00  0.00     0.000 O
ATOM     19   S  SGN A 508      28.850  19.506   12.000  0.00  0.00     0.000 S
ATOM     20   O  SGN A 508      28.550  20.735   12.800  0.00  0.00     0.000 OA
ATOM     21   O  SGN A 508      30.220  19.004   12.340  0.00  0.00     0.000 OA
ATOM     22   O  SGN A 508      28.800  19.837   10.530  0.00  0.00     0.000 OA
ENDROOT
BRANCH 1 23
ATOM     23  O4  SGN A 508      26.260  13.945   13.610  0.00  0.00     0.000 O
BRANCH 23 27
ATOM     24  C1  IDS A 507      27.370  10.164   14.210  0.00  0.00     0.000 C
ATOM     25  C2  IDS A 507      26.890  10.818   15.510  0.00  0.00     0.000 C
ATOM     26  C3  IDS A 507      26.130  12.115   15.220  0.00  0.00     0.000 C
ATOM     27  C4  IDS A 507      27.040  13.115   14.500  0.00  0.00     0.000 C
ATOM     28  C5  IDS A 507      28.120  12.367   13.710  0.00  0.00     0.000 C
ATOM     29  O5  IDS A 507      27.600  11.141   13.180  0.00  0.00     0.000 O
ATOM     30   S  IDS A 507      24.810  10.123   16.590  0.00  0.00     0.000 S
ATOM     31   O  IDS A 507      24.140   8.854   17.040  0.00  0.00     0.000 OA
ATOM     32   O  IDS A 507      24.760  11.109   17.720  0.00  0.00     0.000 OA
ATOM     33   O  IDS A 507      24.060  10.670   15.410  0.00  0.00     0.000 OA
ATOM     34   O  IDS A 507      26.160   9.826   16.250  0.00  0.00     0.000 O
ATOM     35   O  IDS A 507      25.700  12.697   16.450  0.00  0.00     0.000 O
ATOM     37  HD  IDS A 507      26.200  13.197   16.950  0.00  0.00     0.000 HD
ATOM     37   O  IDS A 507      29.660  13.857   12.660  0.00  0.00     0.000 OA
ATOM     38   O  IDS A 507      27.860  13.277   11.520  0.00  0.00     0.000 OA
ATOM     39   C  IDS A 507      28.580  13.236   12.540  0.00  0.00     0.000 C
BRANCH 24 40
ATOM     40  O4  IDS A 507      28.570   9.391   14.460  0.00  0.00     0.000 O
BRANCH 40 44
ATOM     41  C1  SUS A 506      30.130   6.474   11.780  0.00  0.00     0.000 C
ATOM     42  C2  SUS A 506      30.720   7.885   11.760  0.00  0.00     0.000 C
ATOM     43  C3  SUS A 506      30.430   8.651   13.050  0.00  0.00     0.000 C
ATOM     44  C4  SUS A 506      28.910   8.633   13.270  0.00  0.00     0.000 C
ATOM     45  C5  SUS A 506      28.480   7.170   13.400  0.00  0.00     0.000 C
ATOM     46  O5  SUS A 506      28.740   6.479   12.170  0.00  0.00     0.000 O
ATOM     47   S  SUS A 506      32.530   8.209    9.980  0.00  0.00     0.000 S
ATOM     48   O  SUS A 506      31.890   9.520    9.620  0.00  0.00     0.000 OA
ATOM     49   O  SUS A 506      34.020   8.316    9.850  0.00  0.00     0.000 OA
ATOM     50   O  SUS A 506      32.020   7.145    9.060  0.00  0.00     0.000 OA
ATOM     51   N  SUS A 506      32.180   7.822   11.530  0.00  0.00     0.000 N
ATOM     53  HD  SUS A 506      32.680   8.322   12.030  0.00  0.00     0.000 HD
ATOM     53   O  SUS A 506      30.890  10.000   12.930  0.00  0.00     0.000 O
ATOM     54   S  SUS A 506      31.840  10.348   13.940  0.00  0.00     0.000 S
ATOM     55   O  SUS A 506      33.140   9.644   13.700  0.00  0.00     0.000 OA
ATOM     56   O  SUS A 506      32.070  11.829   13.910  0.00  0.00     0.000 OA
ATOM     57   O  SUS A 506      31.310   9.962   15.290  0.00  0.00     0.000 OA
ATOM     58   S  SUS A 506      24.750   7.722   12.890  0.00  0.00     0.000 S
ATOM     59   C  SUS A 506      26.990   7.076   13.750  0.00  0.00     0.000 C
ATOM     60   O  SUS A 506      26.160   7.571   12.690  0.00  0.00     0.000 O
ATOM     61   O  SUS A 506      24.490   8.995   13.640  0.00  0.00     0.000 OA
ATOM     62   O  SUS A 506      24.060   7.790   11.560  0.00  0.00     0.000 OA
ATOM     63   O  SUS A 506      24.220   6.561   13.680  0.00  0.00     0.000 OA
BRANCH 41 64
ATOM     64  O4  SUS A 506      30.920   5.549   12.560  0.00  0.00     0.000 O
BRANCH 64 68
ATOM     65  C1  IDS A 505      33.420   2.903   12.610  0.00  0.00     0.000 C
ATOM     66  C2  IDS A 505      33.460   3.965   11.500  0.00  0.00     0.000 C
ATOM     67  C3  IDS A 505      32.070   4.164   10.870  0.00  0.00     0.000 C
ATOM     68  C4  IDS A 505      30.940   4.258   11.900  0.00  0.00     0.000 C
ATOM     69  C5  IDS A 505      31.110   3.093   12.870  0.00  0.00     0.000 C
ATOM     70  O5  IDS A 505      32.380   3.219   13.540  0.00  0.00     0.000 O
ATOM     71   O  IDS A 505      33.930   5.205   12.040  0.00  0.00     0.000 O
ATOM     72   S  IDS A 505      35.300   5.492   11.720  0.00  0.00     0.000 S
ATOM     73   O  IDS A 505      36.000   4.323   12.340  0.00  0.00     0.000 OA
ATOM     74   O  IDS A 505      35.480   6.755   12.500  0.00  0.00     0.000 OA
ATOM     75   O  IDS A 505      35.240   5.576   10.220  0.00  0.00     0.000 OA
ATOM     76   O  IDS A 505      31.790   3.080    9.980  0.00  0.00     0.000 O
ATOM     78  HD  IDS A 505      32.290   3.580   10.480  0.00  0.00     0.000 HD
ATOM     78   O  IDS A 505      28.810   3.280   13.480  0.00  0.00     0.000 OA
ATOM     79   O  IDS A 505      30.200   2.435   14.980  0.00  0.00     0.000 OA
ATOM     80   C  IDS A 505      29.950   2.936   13.860  0.00  0.00     0.000 C
BRANCH 65 81
ATOM     81  O4  IDS A 505      33.150   1.586   12.060  0.00  0.00     0.000 O
BRANCH 81 85
ATOM     82  C1  SGN A 504      37.010  -0.133   12.560  0.00  0.00     0.000 C
ATOM     83  C2  SGN A 504      36.580   0.277   11.150  0.00  0.00     0.000 C
ATOM     84  C3  SGN A 504      35.430   1.288   11.210  0.00  0.00     0.000 C
ATOM     85  C4  SGN A 504      34.290   0.691   12.030  0.00  0.00     0.000 C
ATOM     86  C5  SGN A 504      34.820   0.357   13.430  0.00  0.00     0.000 C
ATOM     87  O5  SGN A 504      35.880  -0.607   13.310  0.00  0.00     0.000 O
ATOM     88   N  SGN A 504      37.720   0.867   10.430  0.00  0.00     0.000 N
ATOM     90  HD  SGN A 504      38.220   1.367   10.930  0.00  0.00     0.000 HD
ATOM     90   S  SGN A 504      38.490  -0.245    9.510  0.00  0.00     0.000 S
ATOM     91   O  SGN A 504      39.710   0.379    8.910  0.00  0.00     0.000 OA
ATOM     92   O  SGN A 504      38.880  -1.424   10.360  0.00  0.00     0.000 OA
ATOM     93   O  SGN A 504      37.580  -0.712    8.420  0.00  0.00     0.000 OA
ATOM     94   O  SGN A 504      34.970   1.555    9.890  0.00  0.00     0.000 O
ATOM     96  HD  SGN A 504      35.470   2.055   10.390  0.00  0.00     0.000 HD
ATOM     96   C  SGN A 504      33.720  -0.265   14.310  0.00  0.00     0.000 C
ATOM     97   O  SGN A 504      33.310  -1.547   13.820  0.00  0.00     0.000 O
ATOM     98   S  SGN A 504      33.210  -2.662   14.710  0.00  0.00     0.000 S
ATOM     99   O  SGN A 504      32.430  -3.760   14.060  0.00  0.00     0.000 OA
ATOM    100   O  SGN A 504      34.590  -3.154   15.050  0.00  0.00     0.000 OA
ATOM    101   O  SGN A 504      32.510  -2.243   15.970  0.00  0.00     0.000 OA
BRANCH 82 102
ATOM    102  O4  SGN A 504      37.660   0.963   13.250  0.00  0.00     0.000 O
BRANCH 102 106
ATOM    103  C1  IDS A 503      40.540   2.369   14.870  0.00  0.00     0.000 C
ATOM    104  C2  IDS A 503      40.670   1.430   13.660  0.00  0.00     0.000 C
ATOM    105  C3  IDS A 503      39.880   0.132   13.870  0.00  0.00     0.000 C
ATOM    106  C4  IDS A 503      38.450   0.404   14.330  0.00  0.00     0.000 C
ATOM    107  C5  IDS A 503      38.480   1.338   15.540  0.00  0.00     0.000 C
ATOM    108  O5  IDS A 503      39.150   2.564   15.220  0.00  0.00     0.000 O
ATOM    109   O  IDS A 503      40.220   2.105   12.490  0.00  0.00     0.000 O
ATOM    110   S  IDS A 503      41.340   2.502   11.700  0.00  0.00     0.000 S
ATOM    111   O  IDS A 503      42.280   3.328   12.530  0.00  0.00     0.000 OA
ATOM    112   O  IDS A 503      42.070   1.291   11.200  0.00  0.00     0.000 OA
ATOM    113   O  IDS A 503      40.860   3.312   10.530  0.00  0.00     0.000 OA
ATOM    114   O  IDS A 503      40.540  -0.687   14.840  0.00  0.00     0.000 O
ATOM    116  HD  IDS A 503      41.040  -0.187   15.340  0.00  0.00     0.000 HD
ATOM    116   C  IDS A 503      37.040   1.644   15.960  0.00  0.00     0.000 C
ATOM    117   O  IDS A 503      36.540   2.728   15.600  0.00  0.00     0.000 OA
ATOM    118   O  IDS A 503      36.440   0.788   16.650  0.00  0.00     0.000 OA
BRANCH 103 119
ATOM    119  O4  IDS A 503      41.300   1.813   15.970  0.00  0.00     0.000 O
BRANCH 119 123
ATOM    120  C1  SGN A 502      42.250   3.070   19.840  0.00  0.00     0.000 C
ATOM    121  C2  SGN A 502      41.140   2.025   19.720  0.00  0.00     0.000 C
ATOM    122  C3  SGN A 502      41.120   1.422   18.310  0.00  0.00     0.000 C
ATOM    123  C4  SGN A 502      41.070   2.501   17.230  0.00  0.00     0.000 C
ATOM    124  C5  SGN A 502      42.200   3.501   17.500  0.00  0.00     0.000 C
ATOM    125  O5  SGN A 502      42.080   4.066   18.810  0.00  0.00     0.000 O
ATOM    126   S  SGN A 502      40.670   1.248   22.100  0.00  0.00     0.000 S
ATOM    127   O  SGN A 502      39.210   1.520   21.880  0.00  0.00     0.000 OA
ATOM    128   O  SGN A 502      40.820   0.054   23.000  0.00  0.00     0.000 OA
ATOM    129   O  SGN A 502      41.310   2.439   22.740  0.00  0.00     0.000 OA
ATOM    130   N  SGN A 502      41.390   0.937   20.670  0.00  0.00     0.000 N
ATOM    132  HD  SGN A 502      41.890   1.437   21.170  0.00  0.00     0.000 HD
ATOM    132   O  SGN A 502      39.980   0.569   18.180  0.00  0.00     0.000 O
ATOM    134  HD  SGN A 502      40.480   1.069   18.680  0.00  0.00     0.000 HD
ATOM    134   O  SGN A 502      40.990   5.441   16.610  0.00  0.00     0.000 O
ATOM    135   S  SGN A 502      40.860   6.663   15.880  0.00  0.00     0.000 S
ATOM    136   O  SGN A 502      39.440   7.026   16.190  0.00  0.00     0.000 OA
ATOM    137   O  SGN A 502      41.040   6.153   14.480  0.00  0.00     0.000 OA
ATOM    138   O  SGN A 502      41.970   7.446   16.520  0.00  0.00     0.000 OA
ATOM    139   C  SGN A 502      42.170   4.653   16.490  0.00  0.00     0.000 C
BRANCH 120 140
ATOM    140  O4  SGN A 502      43.540   2.431   19.700  0.00  0.00     0.000 O
BRANCH 140 144
ATOM    141  C1  IDS A 501      46.540   1.252   21.030  0.00  0.00     0.000 C
ATOM    142  C2  IDS A 501      45.270   1.378   21.870  0.00  0.00     0.000 C
ATOM    143  C3  IDS A 501      44.730   2.809   21.800  0.00  0.00     0.000 C
ATOM    144  C4  IDS A 501      44.560   3.241   20.340  0.00  0.00     0.000 C
ATOM    145  C5  IDS A 501      45.900   3.038   19.620  0.00  0.00     0.000 C
ATOM    146  O5  IDS A 501      46.270   1.653   19.680  0.00  0.00     0.000 O
ATOM    147   O  IDS A 501      47.570   2.091   21.570  0.00  0.00     0.000 OA
ATOM    148   O  IDS A 501      44.280   0.479   21.360  0.00  0.00     0.000 O
ATOM    149   S  IDS A 501      44.190  -0.678   22.200  0.00  0.00     0.000 S
ATOM    150   O  IDS A 501      45.440  -1.490   22.070  0.00  0.00     0.000 OA
ATOM    151   O  IDS A 501      44.010  -0.254   23.630  0.00  0.00     0.000 OA
ATOM    152   O  IDS A 501      43.010  -1.509   21.770  0.00  0.00     0.000 OA
ATOM    153   O  IDS A 501      45.650   3.694   22.450  0.00  0.00     0.000 O
ATOM    155  HD  IDS A 501      46.150   4.194   22.950  0.00  0.00     0.000 HD
ATOM    155   O  IDS A 501      45.930   2.579   17.270  0.00  0.00     0.000 OA
ATOM    156   O  IDS A 501      45.400   4.629   17.910  0.00  0.00     0.000 OA
ATOM    157   C  IDS A 501      45.730   3.448   18.150  0.00  0.00     0.000 C
ENDBRANCH 140 144
ENDBRANCH 120 140
ENDBRANCH 119 123
ENDBRANCH 103 119
ENDBRANCH 102 106
ENDBRANCH 82 102
ENDBRANCH 81 85
ENDBRANCH 65 81
ENDBRANCH 64 68
ENDBRANCH 41 64
ENDBRANCH 40 44
ENDBRANCH 24 40
ENDBRANCH 23 27
ENDBRANCH 1 23
TORSDOF 14