ROOT
ATOM      1  C1  NTP I 433      25.470   8.271  -14.400  0.00  0.00     0.000 C
ATOM      2  C2  NTP I 433      26.250   7.383  -15.370  0.00  0.00     0.000 C
ATOM      3  C3  NTP I 433      27.540   8.109  -15.760  0.00  0.00     0.000 C
ATOM      4  C4  NTP I 433      27.150   9.415  -16.430  0.00  0.00     0.000 C
ATOM      5  C5  NTP I 433      26.240  10.237  -15.540  0.00  0.00     0.000 C
ATOM      6  O5  NTP I 433      25.100   9.473  -15.100  0.00  0.00     0.000 O
ATOM      7   O  NTP I 433      26.560   6.131  -14.750  0.00  0.00     0.000 O
ATOM      8   S  NTP I 433      25.950   5.050  -15.470  0.00  0.00     0.000 S
ATOM      9   O  NTP I 433      26.590   4.924  -16.820  0.00  0.00     0.000 OA
ATOM     10   O  NTP I 433      24.480   5.308  -15.640  0.00  0.00     0.000 OA
ATOM     11   O  NTP I 433      26.150   3.774  -14.710  0.00  0.00     0.000 OA
ATOM     12   O  NTP I 433      28.310   7.320  -16.680  0.00  0.00     0.000 O
ATOM     13   C  NTP I 433      29.020   6.297  -15.980  0.00  0.00     0.000 C
ATOM     14   O  NTP I 433      28.360  10.153  -16.660  0.00  0.00     0.000 O
ATOM     15   C  NTP I 433      28.280  10.880  -17.890  0.00  0.00     0.000 C
ATOM     16   C  NTP I 433      25.750  11.425  -16.370  0.00  0.00     0.000 C
ATOM     17   O  NTP I 433      24.880  12.297  -15.630  0.00  0.00     0.000 O
ATOM     18   S  NTP I 433      24.140  13.313  -16.320  0.00  0.00     0.000 S
ATOM     19   O  NTP I 433      22.940  12.692  -16.970  0.00  0.00     0.000 OA
ATOM     20   O  NTP I 433      25.000  13.964  -17.360  0.00  0.00     0.000 OA
ATOM     21   O  NTP I 433      23.700  14.348  -15.320  0.00  0.00     0.000 OA
ENDROOT
BRANCH 1 22
ATOM     22  O4  NTP I 433      26.310   8.588  -13.290  0.00  0.00     0.000 O
BRANCH 22 26
ATOM     23  C1  NTP I 433      25.400   8.830   -9.230  0.00  0.00     0.000 C
ATOM     24  C2  NTP I 433      24.410   8.048  -10.090  0.00  0.00     0.000 C
ATOM     25  C3  NTP I 433      25.080   7.673  -11.410  0.00  0.00     0.000 C
ATOM     26  C4  NTP I 433      25.560   8.931  -12.110  0.00  0.00     0.000 C
ATOM     27  C5  NTP I 433      26.470   9.702  -11.170  0.00  0.00     0.000 C
ATOM     28  O5  NTP I 433      25.790  10.012   -9.940  0.00  0.00     0.000 O
ATOM     29   O  NTP I 433      24.030   6.835   -9.420  0.00  0.00     0.000 O
ATOM     30   C  NTP I 433      23.050   7.092   -8.420  0.00  0.00     0.000 C
ATOM     31   C  NTP I 433      23.940   5.658  -11.860  0.00  0.00     0.000 C
ATOM     32   O  NTP I 433      24.120   7.022  -12.250  0.00  0.00     0.000 O
ATOM     33   C  NTP I 433      26.880  11.007  -11.860  0.00  0.00     0.000 C
ATOM     34   O  NTP I 433      25.990  11.860  -12.060  0.00  0.00     0.000 OA
ATOM     35   O  NTP I 433      28.080  11.157  -12.180  0.00  0.00     0.000 OA
BRANCH 23 36
ATOM     36  O4  NTP I 433      24.740   9.235   -8.020  0.00  0.00     0.000 O
BRANCH 36 40
ATOM     37  C1  NTP I 433      25.780   9.749   -4.050  0.00  0.00     0.000 C
ATOM     38  C2  NTP I 433      26.080  10.953   -4.940  0.00  0.00     0.000 C
ATOM     39  C3  NTP I 433      25.280  10.809   -6.250  0.00  0.00     0.000 C
ATOM     40  C4  NTP I 433      25.650   9.489   -6.930  0.00  0.00     0.000 C
ATOM     41  C5  NTP I 433      25.570   8.326   -5.950  0.00  0.00     0.000 C
ATOM     42  O5  NTP I 433      26.250   8.564   -4.710  0.00  0.00     0.000 O
ATOM     43   O  NTP I 433      25.690  12.155   -4.270  0.00  0.00     0.000 O
ATOM     44   S  NTP I 433      26.650  12.525   -3.270  0.00  0.00     0.000 S
ATOM     45   O  NTP I 433      26.550  14.000   -3.010  0.00  0.00     0.000 OA
ATOM     46   O  NTP I 433      28.030  12.192   -3.740  0.00  0.00     0.000 OA
ATOM     47   O  NTP I 433      26.360  11.787   -2.000  0.00  0.00     0.000 OA
ATOM     48   O  NTP I 433      25.610  11.898   -7.120  0.00  0.00     0.000 O
ATOM     49   S  NTP I 433      24.490  12.742   -7.420  0.00  0.00     0.000 S
ATOM     50   O  NTP I 433      23.900  13.281   -6.150  0.00  0.00     0.000 OA
ATOM     51   O  NTP I 433      24.970  13.881   -8.270  0.00  0.00     0.000 OA
ATOM     52   O  NTP I 433      23.440  11.967   -8.160  0.00  0.00     0.000 OA
ATOM     53   C  NTP I 433      26.190   7.083   -6.600  0.00  0.00     0.000 C
ATOM     54   O  NTP I 433      27.570   7.297   -6.890  0.00  0.00     0.000 O
ATOM     55   S  NTP I 433      28.340   6.283   -7.550  0.00  0.00     0.000 S
ATOM     56   O  NTP I 433      27.890   6.157   -8.970  0.00  0.00     0.000 OA
ATOM     57   O  NTP I 433      28.140   4.977   -6.840  0.00  0.00     0.000 OA
ATOM     58   O  NTP I 433      29.790   6.658   -7.520  0.00  0.00     0.000 OA
BRANCH 37 59
ATOM     59  O4  NTP I 433      24.370   9.701   -3.800  0.00  0.00     0.000 O
BRANCH 59 63
ATOM     60  C1  NTP I 433      21.960   9.542   -0.830  0.00  0.00     0.000 C
ATOM     61  C2  NTP I 433      23.240   8.796   -0.450  0.00  0.00     0.000 C
ATOM     62  C3  NTP I 433      24.360   9.099   -1.460  0.00  0.00     0.000 C
ATOM     63  C4  NTP I 433      23.940   8.696   -2.870  0.00  0.00     0.000 C
ATOM     64  C5  NTP I 433      22.430   8.631   -2.960  0.00  0.00     0.000 C
ATOM     65  O5  NTP I 433      21.900   9.765   -2.250  0.00  0.00     0.000 O
ATOM     66   O  NTP I 433      23.650   9.273    0.830  0.00  0.00     0.000 O
ATOM     67   S  NTP I 433      23.540   8.301    1.880  0.00  0.00     0.000 S
ATOM     68   O  NTP I 433      22.110   7.885    2.060  0.00  0.00     0.000 OA
ATOM     69   O  NTP I 433      24.040   8.912    3.150  0.00  0.00     0.000 OA
ATOM     70   O  NTP I 433      24.370   7.097    1.540  0.00  0.00     0.000 OA
ATOM     71   O  NTP I 433      25.520   8.335   -1.120  0.00  0.00     0.000 O
ATOM     72   C  NTP I 433      26.280   8.990   -0.100  0.00  0.00     0.000 C
ATOM     73   C  NTP I 433      22.030   8.743   -4.430  0.00  0.00     0.000 C
ATOM     74   O  NTP I 433      22.270   7.780   -5.180  0.00  0.00     0.000 OA
ATOM     75   O  NTP I 433      21.480   9.805   -4.810  0.00  0.00     0.000 OA
BRANCH 60 76
ATOM     76  O4  NTP I 433      20.810   8.798   -0.400  0.00  0.00     0.000 O
BRANCH 76 80
ATOM     77  C1  NTP I 433      16.840   9.990    0.120  0.00  0.00     0.000 C
ATOM     78  C2  NTP I 433      17.210   9.501   -1.270  0.00  0.00     0.000 C
ATOM     79  C3  NTP I 433      18.510   8.686   -1.200  0.00  0.00     0.000 C
ATOM     80  C4  NTP I 433      19.610   9.557   -0.570  0.00  0.00     0.000 C
ATOM     81  C5  NTP I 433      19.130  10.095    0.760  0.00  0.00     0.000 C
ATOM     82  O5  NTP I 433      17.900  10.814    0.630  0.00  0.00     0.000 O
ENDBRANCH 76 80
ENDBRANCH 60 76
ENDBRANCH 59 63
ENDBRANCH 37 59
ENDBRANCH 36 40
ENDBRANCH 23 36
ENDBRANCH 22 26
ENDBRANCH 1 22
TORSDOF 8