ROOT
ATOM      1  C1  NTP I 433      25.470   8.271  -14.400  0.00  0.00     0.000 C
ATOM      2  C2  NTP I 433      26.250   7.383  -15.370  0.00  0.00     0.000 C
ATOM      3  C3  NTP I 433      27.540   8.109  -15.760  0.00  0.00     0.000 C
ATOM      4  C4  NTP I 433      27.150   9.415  -16.430  0.00  0.00     0.000 C
ATOM      5  C5  NTP I 433      26.240  10.237  -15.540  0.00  0.00     0.000 C
ATOM      6  O5  NTP I 433      25.100   9.473  -15.100  0.00  0.00     0.000 O
ATOM      7  C4  NTP I 433      25.560   8.931  -12.110  0.00  0.00     0.000 C
ATOM      8  C5  NTP I 433      26.470   9.702  -11.170  0.00  0.00     0.000 C
ATOM      9  O5  NTP I 433      25.790  10.012   -9.940  0.00  0.00     0.000 O
ATOM     10   C  NTP I 433      26.880  11.007  -11.860  0.00  0.00     0.000 C
ATOM     11   O  NTP I 433      25.990  11.860  -12.060  0.00  0.00     0.000 OA
ATOM     12   O  NTP I 433      28.080  11.157  -12.180  0.00  0.00     0.000 OA
ATOM     13  C3  NTP I 433      25.080   7.673  -11.410  0.00  0.00     0.000 C
ATOM     14   O  NTP I 433      24.120   7.022  -12.250  0.00  0.00     0.000 O
ATOM     15   C  NTP I 433      23.940   5.658  -11.860  0.00  0.00     0.000 C
ATOM     16  C2  NTP I 433      24.410   8.048  -10.090  0.00  0.00     0.000 C
ATOM     17   O  NTP I 433      24.030   6.835   -9.420  0.00  0.00     0.000 O
ATOM     18   C  NTP I 433      23.050   7.092   -8.420  0.00  0.00     0.000 C
ATOM     19  C1  NTP I 433      25.400   8.830   -9.230  0.00  0.00     0.000 C
ATOM     20  O4  NTP I 433      24.740   9.235   -8.020  0.00  0.00     0.000 O
ATOM     21  C4  NTP I 433      25.650   9.489   -6.930  0.00  0.00     0.000 C
ATOM     22  C5  NTP I 433      25.570   8.326   -5.950  0.00  0.00     0.000 C
ATOM     23  O5  NTP I 433      26.250   8.564   -4.710  0.00  0.00     0.000 O
ATOM     24   C  NTP I 433      26.190   7.083   -6.600  0.00  0.00     0.000 C
ATOM     25   O  NTP I 433      27.570   7.297   -6.890  0.00  0.00     0.000 O
ATOM     26   S  NTP I 433      28.340   6.283   -7.550  0.00  0.00     0.000 S
ATOM     27   O  NTP I 433      27.890   6.157   -8.970  0.00  0.00     0.000 OA
ATOM     28   O  NTP I 433      28.140   4.977   -6.840  0.00  0.00     0.000 OA
ATOM     29   O  NTP I 433      29.790   6.658   -7.520  0.00  0.00     0.000 OA
ATOM     30  C3  NTP I 433      25.280  10.809   -6.250  0.00  0.00     0.000 C
ATOM     31   O  NTP I 433      25.610  11.898   -7.120  0.00  0.00     0.000 O
ATOM     32   S  NTP I 433      24.490  12.742   -7.420  0.00  0.00     0.000 S
ATOM     33   O  NTP I 433      23.900  13.281   -6.150  0.00  0.00     0.000 OA
ATOM     34   O  NTP I 433      24.970  13.881   -8.270  0.00  0.00     0.000 OA
ATOM     35   O  NTP I 433      23.440  11.967   -8.160  0.00  0.00     0.000 OA
ATOM     36  C2  NTP I 433      26.080  10.953   -4.940  0.00  0.00     0.000 C
ATOM     37   O  NTP I 433      25.690  12.155   -4.270  0.00  0.00     0.000 O
ATOM     38   S  NTP I 433      26.650  12.525   -3.270  0.00  0.00     0.000 S
ATOM     39   O  NTP I 433      26.550  14.000   -3.010  0.00  0.00     0.000 OA
ATOM     40   O  NTP I 433      28.030  12.192   -3.740  0.00  0.00     0.000 OA
ATOM     41   O  NTP I 433      26.360  11.787   -2.000  0.00  0.00     0.000 OA
ATOM     42  C1  NTP I 433      25.780   9.749   -4.050  0.00  0.00     0.000 C
ATOM     43  O4  NTP I 433      24.370   9.701   -3.800  0.00  0.00     0.000 O
ATOM     44  C4  NTP I 433      23.940   8.696   -2.870  0.00  0.00     0.000 C
ATOM     45  C5  NTP I 433      22.430   8.631   -2.960  0.00  0.00     0.000 C
ATOM     46  O5  NTP I 433      21.900   9.765   -2.250  0.00  0.00     0.000 O
ATOM     47   C  NTP I 433      22.030   8.743   -4.430  0.00  0.00     0.000 C
ATOM     48   O  NTP I 433      22.270   7.780   -5.180  0.00  0.00     0.000 OA
ATOM     49   O  NTP I 433      21.480   9.805   -4.810  0.00  0.00     0.000 OA
ATOM     50  C3  NTP I 433      24.360   9.099   -1.460  0.00  0.00     0.000 C
ATOM     51   O  NTP I 433      25.520   8.335   -1.120  0.00  0.00     0.000 O
ATOM     52   C  NTP I 433      26.280   8.990   -0.100  0.00  0.00     0.000 C
ATOM     53  C2  NTP I 433      23.240   8.796   -0.450  0.00  0.00     0.000 C
ATOM     54   O  NTP I 433      23.650   9.273    0.830  0.00  0.00     0.000 O
ATOM     55   S  NTP I 433      23.540   8.301    1.880  0.00  0.00     0.000 S
ATOM     56   O  NTP I 433      22.110   7.885    2.060  0.00  0.00     0.000 OA
ATOM     57   O  NTP I 433      24.040   8.912    3.150  0.00  0.00     0.000 OA
ATOM     58   O  NTP I 433      24.370   7.097    1.540  0.00  0.00     0.000 OA
ATOM     59  C1  NTP I 433      21.960   9.542   -0.830  0.00  0.00     0.000 C
ATOM     60  O4  NTP I 433      20.810   8.798   -0.400  0.00  0.00     0.000 O
ATOM     61  C4  NTP I 433      19.610   9.557   -0.570  0.00  0.00     0.000 C
ATOM     62  C5  NTP I 433      19.130  10.095    0.760  0.00  0.00     0.000 C
ATOM     63  O5  NTP I 433      17.900  10.814    0.630  0.00  0.00     0.000 O
ATOM     64   C  NTP I 433      20.170  11.044    1.380  0.00  0.00     0.000 C
ATOM     65   O  NTP I 433      20.300  12.238    0.600  0.00  0.00     0.000 O
ATOM     66   S  NTP I 433      21.110  13.328    1.060  0.00  0.00     0.000 S
ATOM     67   O  NTP I 433      22.540  12.895    1.150  0.00  0.00     0.000 OA
ATOM     68   O  NTP I 433      20.640  13.765    2.420  0.00  0.00     0.000 OA
ATOM     69   O  NTP I 433      20.990  14.474    0.100  0.00  0.00     0.000 OA
ATOM     70  C3  NTP I 433      18.510   8.686   -1.200  0.00  0.00     0.000 C
ATOM     71   O  NTP I 433      18.900   8.285   -2.510  0.00  0.00     0.000 O
ATOM     72   S  NTP I 433      19.040   6.866   -2.650  0.00  0.00     0.000 S
ATOM     73   O  NTP I 433      20.270   6.408   -1.940  0.00  0.00     0.000 OA
ATOM     74   O  NTP I 433      19.160   6.529   -4.110  0.00  0.00     0.000 OA
ATOM     75   O  NTP I 433      17.840   6.163   -2.080  0.00  0.00     0.000 OA
ATOM     76  C2  NTP I 433      17.210   9.501   -1.270  0.00  0.00     0.000 C
ATOM     77   O  NTP I 433      16.150   8.697   -1.790  0.00  0.00     0.000 O
ATOM     78   S  NTP I 433      15.320   9.441   -2.690  0.00  0.00     0.000 S
ATOM     79   O  NTP I 433      16.070   9.685   -3.960  0.00  0.00     0.000 OA
ATOM     80   O  NTP I 433      14.940  10.754   -2.080  0.00  0.00     0.000 OA
ATOM     81   O  NTP I 433      14.080   8.649   -2.990  0.00  0.00     0.000 OA
ATOM     82  C1  NTP I 433      16.840   9.990    0.120  0.00  0.00     0.000 C
ATOM     83   O  NTP I 433      16.640   8.861    0.980  0.00  0.00     0.000 O
ATOM     84   C  NTP I 433      16.210   9.310    2.270  0.00  0.00     0.000 C
ATOM     85   O  NTP I 433      26.560   6.131  -14.750  0.00  0.00     0.000 O
ATOM     86   S  NTP I 433      25.950   5.050  -15.470  0.00  0.00     0.000 S
ATOM     87   O  NTP I 433      26.590   4.924  -16.820  0.00  0.00     0.000 OA
ATOM     88   O  NTP I 433      24.480   5.308  -15.640  0.00  0.00     0.000 OA
ATOM     89   O  NTP I 433      26.150   3.774  -14.710  0.00  0.00     0.000 OA
ATOM     90   O  NTP I 433      28.310   7.320  -16.680  0.00  0.00     0.000 O
ATOM     91   C  NTP I 433      29.020   6.297  -15.980  0.00  0.00     0.000 C
ATOM     92   O  NTP I 433      28.360  10.153  -16.660  0.00  0.00     0.000 O
ATOM     93   C  NTP I 433      28.280  10.880  -17.890  0.00  0.00     0.000 C
ATOM     94   C  NTP I 433      25.750  11.425  -16.370  0.00  0.00     0.000 C
ATOM     95   O  NTP I 433      24.880  12.297  -15.630  0.00  0.00     0.000 O
ATOM     96   S  NTP I 433      24.140  13.313  -16.320  0.00  0.00     0.000 S
ATOM     97   O  NTP I 433      22.940  12.692  -16.970  0.00  0.00     0.000 OA
ATOM     98   O  NTP I 433      25.000  13.964  -17.360  0.00  0.00     0.000 OA
ATOM     99   O  NTP I 433      23.700  14.348  -15.320  0.00  0.00     0.000 OA
ENDROOT
BRANCH 433 100
ATOM    100  O4  NTP I 433      26.310   8.588  -13.290  0.00  0.00     0.000 O
BRANCH 100 434
ATOM    101  C1  NTP I 433      25.400   8.830   -9.230  0.00  0.00     0.000 C
ATOM    102  C2  NTP I 433      24.410   8.048  -10.090  0.00  0.00     0.000 C
ATOM    103  C3  NTP I 433      25.080   7.673  -11.410  0.00  0.00     0.000 C
ATOM    104  C4  NTP I 433      25.560   8.931  -12.110  0.00  0.00     0.000 C
ATOM    105  C5  NTP I 433      26.470   9.702  -11.170  0.00  0.00     0.000 C
ATOM    106  O5  NTP I 433      25.790  10.012   -9.940  0.00  0.00     0.000 O
ATOM    107  C4  NTP I 433      25.650   9.489   -6.930  0.00  0.00     0.000 C
ATOM    108  C5  NTP I 433      25.570   8.326   -5.950  0.00  0.00     0.000 C
ATOM    109  O5  NTP I 433      26.250   8.564   -4.710  0.00  0.00     0.000 O
ATOM    110   C  NTP I 433      26.190   7.083   -6.600  0.00  0.00     0.000 C
ATOM    111   O  NTP I 433      27.570   7.297   -6.890  0.00  0.00     0.000 O
ATOM    112   S  NTP I 433      28.340   6.283   -7.550  0.00  0.00     0.000 S
ATOM    113   O  NTP I 433      27.890   6.157   -8.970  0.00  0.00     0.000 OA
ATOM    114   O  NTP I 433      28.140   4.977   -6.840  0.00  0.00     0.000 OA
ATOM    115   O  NTP I 433      29.790   6.658   -7.520  0.00  0.00     0.000 OA
ATOM    116  C3  NTP I 433      25.280  10.809   -6.250  0.00  0.00     0.000 C
ATOM    117   O  NTP I 433      25.610  11.898   -7.120  0.00  0.00     0.000 O
ATOM    118   S  NTP I 433      24.490  12.742   -7.420  0.00  0.00     0.000 S
ATOM    119   O  NTP I 433      23.900  13.281   -6.150  0.00  0.00     0.000 OA
ATOM    120   O  NTP I 433      24.970  13.881   -8.270  0.00  0.00     0.000 OA
ATOM    121   O  NTP I 433      23.440  11.967   -8.160  0.00  0.00     0.000 OA
ATOM    122  C2  NTP I 433      26.080  10.953   -4.940  0.00  0.00     0.000 C
ATOM    123   O  NTP I 433      25.690  12.155   -4.270  0.00  0.00     0.000 O
ATOM    124   S  NTP I 433      26.650  12.525   -3.270  0.00  0.00     0.000 S
ATOM    125   O  NTP I 433      26.550  14.000   -3.010  0.00  0.00     0.000 OA
ATOM    126   O  NTP I 433      28.030  12.192   -3.740  0.00  0.00     0.000 OA
ATOM    127   O  NTP I 433      26.360  11.787   -2.000  0.00  0.00     0.000 OA
ATOM    128  C1  NTP I 433      25.780   9.749   -4.050  0.00  0.00     0.000 C
ATOM    129  O4  NTP I 433      24.370   9.701   -3.800  0.00  0.00     0.000 O
ATOM    130  C4  NTP I 433      23.940   8.696   -2.870  0.00  0.00     0.000 C
ATOM    131  C5  NTP I 433      22.430   8.631   -2.960  0.00  0.00     0.000 C
ATOM    132  O5  NTP I 433      21.900   9.765   -2.250  0.00  0.00     0.000 O
ATOM    133   C  NTP I 433      22.030   8.743   -4.430  0.00  0.00     0.000 C
ATOM    134   O  NTP I 433      22.270   7.780   -5.180  0.00  0.00     0.000 OA
ATOM    135   O  NTP I 433      21.480   9.805   -4.810  0.00  0.00     0.000 OA
ATOM    136  C3  NTP I 433      24.360   9.099   -1.460  0.00  0.00     0.000 C
ATOM    137   O  NTP I 433      25.520   8.335   -1.120  0.00  0.00     0.000 O
ATOM    138   C  NTP I 433      26.280   8.990   -0.100  0.00  0.00     0.000 C
ATOM    139  C2  NTP I 433      23.240   8.796   -0.450  0.00  0.00     0.000 C
ATOM    140   O  NTP I 433      23.650   9.273    0.830  0.00  0.00     0.000 O
ATOM    141   S  NTP I 433      23.540   8.301    1.880  0.00  0.00     0.000 S
ATOM    142   O  NTP I 433      22.110   7.885    2.060  0.00  0.00     0.000 OA
ATOM    143   O  NTP I 433      24.040   8.912    3.150  0.00  0.00     0.000 OA
ATOM    144   O  NTP I 433      24.370   7.097    1.540  0.00  0.00     0.000 OA
ATOM    145  C1  NTP I 433      21.960   9.542   -0.830  0.00  0.00     0.000 C
ATOM    146  O4  NTP I 433      20.810   8.798   -0.400  0.00  0.00     0.000 O
ATOM    147  C4  NTP I 433      19.610   9.557   -0.570  0.00  0.00     0.000 C
ATOM    148  C5  NTP I 433      19.130  10.095    0.760  0.00  0.00     0.000 C
ATOM    149  O5  NTP I 433      17.900  10.814    0.630  0.00  0.00     0.000 O
ATOM    150   C  NTP I 433      20.170  11.044    1.380  0.00  0.00     0.000 C
ATOM    151   O  NTP I 433      20.300  12.238    0.600  0.00  0.00     0.000 O
ATOM    152   S  NTP I 433      21.110  13.328    1.060  0.00  0.00     0.000 S
ATOM    153   O  NTP I 433      22.540  12.895    1.150  0.00  0.00     0.000 OA
ATOM    154   O  NTP I 433      20.640  13.765    2.420  0.00  0.00     0.000 OA
ATOM    155   O  NTP I 433      20.990  14.474    0.100  0.00  0.00     0.000 OA
ATOM    156  C3  NTP I 433      18.510   8.686   -1.200  0.00  0.00     0.000 C
ATOM    157   O  NTP I 433      18.900   8.285   -2.510  0.00  0.00     0.000 O
ATOM    158   S  NTP I 433      19.040   6.866   -2.650  0.00  0.00     0.000 S
ATOM    159   O  NTP I 433      20.270   6.408   -1.940  0.00  0.00     0.000 OA
ATOM    160   O  NTP I 433      19.160   6.529   -4.110  0.00  0.00     0.000 OA
ATOM    161   O  NTP I 433      17.840   6.163   -2.080  0.00  0.00     0.000 OA
ATOM    162  C2  NTP I 433      17.210   9.501   -1.270  0.00  0.00     0.000 C
ATOM    163   O  NTP I 433      16.150   8.697   -1.790  0.00  0.00     0.000 O
ATOM    164   S  NTP I 433      15.320   9.441   -2.690  0.00  0.00     0.000 S
ATOM    165   O  NTP I 433      16.070   9.685   -3.960  0.00  0.00     0.000 OA
ATOM    166   O  NTP I 433      14.940  10.754   -2.080  0.00  0.00     0.000 OA
ATOM    167   O  NTP I 433      14.080   8.649   -2.990  0.00  0.00     0.000 OA
ATOM    168  C1  NTP I 433      16.840   9.990    0.120  0.00  0.00     0.000 C
ATOM    169   O  NTP I 433      16.640   8.861    0.980  0.00  0.00     0.000 O
ATOM    170   C  NTP I 433      16.210   9.310    2.270  0.00  0.00     0.000 C
ATOM    171   O  NTP I 433      24.030   6.835   -9.420  0.00  0.00     0.000 O
ATOM    172   C  NTP I 433      23.050   7.092   -8.420  0.00  0.00     0.000 C
ATOM    173   C  NTP I 433      23.940   5.658  -11.860  0.00  0.00     0.000 C
ATOM    174   O  NTP I 433      24.120   7.022  -12.250  0.00  0.00     0.000 O
ATOM    175   O  NTP I 433      28.360  10.153  -16.660  0.00  0.00     0.000 O
ATOM    176   C  NTP I 433      28.280  10.880  -17.890  0.00  0.00     0.000 C
ATOM    177  C4  NTP I 433      27.150   9.415  -16.430  0.00  0.00     0.000 C
ATOM    178  C5  NTP I 433      26.240  10.237  -15.540  0.00  0.00     0.000 C
ATOM    179  O5  NTP I 433      25.100   9.473  -15.100  0.00  0.00     0.000 O
ATOM    180   C  NTP I 433      25.750  11.425  -16.370  0.00  0.00     0.000 C
ATOM    181   O  NTP I 433      24.880  12.297  -15.630  0.00  0.00     0.000 O
ATOM    182   S  NTP I 433      24.140  13.313  -16.320  0.00  0.00     0.000 S
ATOM    183   O  NTP I 433      22.940  12.692  -16.970  0.00  0.00     0.000 OA
ATOM    184   O  NTP I 433      25.000  13.964  -17.360  0.00  0.00     0.000 OA
ATOM    185   O  NTP I 433      23.700  14.348  -15.320  0.00  0.00     0.000 OA
ATOM    186  C3  NTP I 433      27.540   8.109  -15.760  0.00  0.00     0.000 C
ATOM    187   O  NTP I 433      28.310   7.320  -16.680  0.00  0.00     0.000 O
ATOM    188   C  NTP I 433      29.020   6.297  -15.980  0.00  0.00     0.000 C
ATOM    189  C2  NTP I 433      26.250   7.383  -15.370  0.00  0.00     0.000 C
ATOM    190   O  NTP I 433      26.560   6.131  -14.750  0.00  0.00     0.000 O
ATOM    191   S  NTP I 433      25.950   5.050  -15.470  0.00  0.00     0.000 S
ATOM    192   O  NTP I 433      26.590   4.924  -16.820  0.00  0.00     0.000 OA
ATOM    193   O  NTP I 433      24.480   5.308  -15.640  0.00  0.00     0.000 OA
ATOM    194   O  NTP I 433      26.150   3.774  -14.710  0.00  0.00     0.000 OA
ATOM    195  C1  NTP I 433      25.470   8.271  -14.400  0.00  0.00     0.000 C
ATOM    196   C  NTP I 433      26.880  11.007  -11.860  0.00  0.00     0.000 C
ATOM    197   O  NTP I 433      25.990  11.860  -12.060  0.00  0.00     0.000 OA
ATOM    198   O  NTP I 433      28.080  11.157  -12.180  0.00  0.00     0.000 OA
BRANCH 446 199
ATOM    199  O4  NTP I 433      24.740   9.235   -8.020  0.00  0.00     0.000 O
BRANCH 199 447
ATOM    200  C1  NTP I 433      25.780   9.749   -4.050  0.00  0.00     0.000 C
ATOM    201  C2  NTP I 433      26.080  10.953   -4.940  0.00  0.00     0.000 C
ATOM    202  C3  NTP I 433      25.280  10.809   -6.250  0.00  0.00     0.000 C
ATOM    203  C4  NTP I 433      25.650   9.489   -6.930  0.00  0.00     0.000 C
ATOM    204  C5  NTP I 433      25.570   8.326   -5.950  0.00  0.00     0.000 C
ATOM    205  O5  NTP I 433      26.250   8.564   -4.710  0.00  0.00     0.000 O
ATOM    206  C4  NTP I 433      23.940   8.696   -2.870  0.00  0.00     0.000 C
ATOM    207  C5  NTP I 433      22.430   8.631   -2.960  0.00  0.00     0.000 C
ATOM    208  O5  NTP I 433      21.900   9.765   -2.250  0.00  0.00     0.000 O
ATOM    209   C  NTP I 433      22.030   8.743   -4.430  0.00  0.00     0.000 C
ATOM    210   O  NTP I 433      22.270   7.780   -5.180  0.00  0.00     0.000 OA
ATOM    211   O  NTP I 433      21.480   9.805   -4.810  0.00  0.00     0.000 OA
ATOM    212  C3  NTP I 433      24.360   9.099   -1.460  0.00  0.00     0.000 C
ATOM    213   O  NTP I 433      25.520   8.335   -1.120  0.00  0.00     0.000 O
ATOM    214   C  NTP I 433      26.280   8.990   -0.100  0.00  0.00     0.000 C
ATOM    215  C2  NTP I 433      23.240   8.796   -0.450  0.00  0.00     0.000 C
ATOM    216   O  NTP I 433      23.650   9.273    0.830  0.00  0.00     0.000 O
ATOM    217   S  NTP I 433      23.540   8.301    1.880  0.00  0.00     0.000 S
ATOM    218   O  NTP I 433      22.110   7.885    2.060  0.00  0.00     0.000 OA
ATOM    219   O  NTP I 433      24.040   8.912    3.150  0.00  0.00     0.000 OA
ATOM    220   O  NTP I 433      24.370   7.097    1.540  0.00  0.00     0.000 OA
ATOM    221  C1  NTP I 433      21.960   9.542   -0.830  0.00  0.00     0.000 C
ATOM    222  O4  NTP I 433      20.810   8.798   -0.400  0.00  0.00     0.000 O
ATOM    223  C4  NTP I 433      19.610   9.557   -0.570  0.00  0.00     0.000 C
ATOM    224  C5  NTP I 433      19.130  10.095    0.760  0.00  0.00     0.000 C
ATOM    225  O5  NTP I 433      17.900  10.814    0.630  0.00  0.00     0.000 O
ATOM    226   C  NTP I 433      20.170  11.044    1.380  0.00  0.00     0.000 C
ATOM    227   O  NTP I 433      20.300  12.238    0.600  0.00  0.00     0.000 O
ATOM    228   S  NTP I 433      21.110  13.328    1.060  0.00  0.00     0.000 S
ATOM    229   O  NTP I 433      22.540  12.895    1.150  0.00  0.00     0.000 OA
ATOM    230   O  NTP I 433      20.640  13.765    2.420  0.00  0.00     0.000 OA
ATOM    231   O  NTP I 433      20.990  14.474    0.100  0.00  0.00     0.000 OA
ATOM    232  C3  NTP I 433      18.510   8.686   -1.200  0.00  0.00     0.000 C
ATOM    233   O  NTP I 433      18.900   8.285   -2.510  0.00  0.00     0.000 O
ATOM    234   S  NTP I 433      19.040   6.866   -2.650  0.00  0.00     0.000 S
ATOM    235   O  NTP I 433      20.270   6.408   -1.940  0.00  0.00     0.000 OA
ATOM    236   O  NTP I 433      19.160   6.529   -4.110  0.00  0.00     0.000 OA
ATOM    237   O  NTP I 433      17.840   6.163   -2.080  0.00  0.00     0.000 OA
ATOM    238  C2  NTP I 433      17.210   9.501   -1.270  0.00  0.00     0.000 C
ATOM    239   O  NTP I 433      16.150   8.697   -1.790  0.00  0.00     0.000 O
ATOM    240   S  NTP I 433      15.320   9.441   -2.690  0.00  0.00     0.000 S
ATOM    241   O  NTP I 433      16.070   9.685   -3.960  0.00  0.00     0.000 OA
ATOM    242   O  NTP I 433      14.940  10.754   -2.080  0.00  0.00     0.000 OA
ATOM    243   O  NTP I 433      14.080   8.649   -2.990  0.00  0.00     0.000 OA
ATOM    244  C1  NTP I 433      16.840   9.990    0.120  0.00  0.00     0.000 C
ATOM    245   O  NTP I 433      16.640   8.861    0.980  0.00  0.00     0.000 O
ATOM    246   C  NTP I 433      16.210   9.310    2.270  0.00  0.00     0.000 C
ATOM    247   O  NTP I 433      25.690  12.155   -4.270  0.00  0.00     0.000 O
ATOM    248   S  NTP I 433      26.650  12.525   -3.270  0.00  0.00     0.000 S
ATOM    249   O  NTP I 433      26.550  14.000   -3.010  0.00  0.00     0.000 OA
ATOM    250   O  NTP I 433      28.030  12.192   -3.740  0.00  0.00     0.000 OA
ATOM    251   O  NTP I 433      26.360  11.787   -2.000  0.00  0.00     0.000 OA
ATOM    252   O  NTP I 433      25.610  11.898   -7.120  0.00  0.00     0.000 O
ATOM    253   S  NTP I 433      24.490  12.742   -7.420  0.00  0.00     0.000 S
ATOM    254   O  NTP I 433      23.900  13.281   -6.150  0.00  0.00     0.000 OA
ATOM    255   O  NTP I 433      24.970  13.881   -8.270  0.00  0.00     0.000 OA
ATOM    256   O  NTP I 433      23.440  11.967   -8.160  0.00  0.00     0.000 OA
ATOM    257   O  NTP I 433      28.360  10.153  -16.660  0.00  0.00     0.000 O
ATOM    258   C  NTP I 433      28.280  10.880  -17.890  0.00  0.00     0.000 C
ATOM    259  C4  NTP I 433      27.150   9.415  -16.430  0.00  0.00     0.000 C
ATOM    260  C5  NTP I 433      26.240  10.237  -15.540  0.00  0.00     0.000 C
ATOM    261  O5  NTP I 433      25.100   9.473  -15.100  0.00  0.00     0.000 O
ATOM    262   C  NTP I 433      25.750  11.425  -16.370  0.00  0.00     0.000 C
ATOM    263   O  NTP I 433      24.880  12.297  -15.630  0.00  0.00     0.000 O
ATOM    264   S  NTP I 433      24.140  13.313  -16.320  0.00  0.00     0.000 S
ATOM    265   O  NTP I 433      22.940  12.692  -16.970  0.00  0.00     0.000 OA
ATOM    266   O  NTP I 433      25.000  13.964  -17.360  0.00  0.00     0.000 OA
ATOM    267   O  NTP I 433      23.700  14.348  -15.320  0.00  0.00     0.000 OA
ATOM    268  C3  NTP I 433      27.540   8.109  -15.760  0.00  0.00     0.000 C
ATOM    269   O  NTP I 433      28.310   7.320  -16.680  0.00  0.00     0.000 O
ATOM    270   C  NTP I 433      29.020   6.297  -15.980  0.00  0.00     0.000 C
ATOM    271  C2  NTP I 433      26.250   7.383  -15.370  0.00  0.00     0.000 C
ATOM    272   O  NTP I 433      26.560   6.131  -14.750  0.00  0.00     0.000 O
ATOM    273   S  NTP I 433      25.950   5.050  -15.470  0.00  0.00     0.000 S
ATOM    274   O  NTP I 433      26.590   4.924  -16.820  0.00  0.00     0.000 OA
ATOM    275   O  NTP I 433      24.480   5.308  -15.640  0.00  0.00     0.000 OA
ATOM    276   O  NTP I 433      26.150   3.774  -14.710  0.00  0.00     0.000 OA
ATOM    277  C1  NTP I 433      25.470   8.271  -14.400  0.00  0.00     0.000 C
ATOM    278  C4  NTP I 433      25.560   8.931  -12.110  0.00  0.00     0.000 C
ATOM    279  C5  NTP I 433      26.470   9.702  -11.170  0.00  0.00     0.000 C
ATOM    280  O5  NTP I 433      25.790  10.012   -9.940  0.00  0.00     0.000 O
ATOM    281   C  NTP I 433      26.880  11.007  -11.860  0.00  0.00     0.000 C
ATOM    282   O  NTP I 433      25.990  11.860  -12.060  0.00  0.00     0.000 OA
ATOM    283   O  NTP I 433      28.080  11.157  -12.180  0.00  0.00     0.000 OA
ATOM    284  C3  NTP I 433      25.080   7.673  -11.410  0.00  0.00     0.000 C
ATOM    285   O  NTP I 433      24.120   7.022  -12.250  0.00  0.00     0.000 O
ATOM    286   C  NTP I 433      23.940   5.658  -11.860  0.00  0.00     0.000 C
ATOM    287  C2  NTP I 433      24.410   8.048  -10.090  0.00  0.00     0.000 C
ATOM    288   O  NTP I 433      24.030   6.835   -9.420  0.00  0.00     0.000 O
ATOM    289   C  NTP I 433      23.050   7.092   -8.420  0.00  0.00     0.000 C
ATOM    290  C1  NTP I 433      25.400   8.830   -9.230  0.00  0.00     0.000 C
ATOM    291   C  NTP I 433      26.190   7.083   -6.600  0.00  0.00     0.000 C
ATOM    292   O  NTP I 433      27.570   7.297   -6.890  0.00  0.00     0.000 O
ATOM    293   S  NTP I 433      28.340   6.283   -7.550  0.00  0.00     0.000 S
ATOM    294   O  NTP I 433      27.890   6.157   -8.970  0.00  0.00     0.000 OA
ATOM    295   O  NTP I 433      28.140   4.977   -6.840  0.00  0.00     0.000 OA
ATOM    296   O  NTP I 433      29.790   6.658   -7.520  0.00  0.00     0.000 OA
BRANCH 468 297
ATOM    297  O4  NTP I 433      24.370   9.701   -3.800  0.00  0.00     0.000 O
BRANCH 297 469
ATOM    298  C1  NTP I 433      21.960   9.542   -0.830  0.00  0.00     0.000 C
ATOM    299  C2  NTP I 433      23.240   8.796   -0.450  0.00  0.00     0.000 C
ATOM    300  C3  NTP I 433      24.360   9.099   -1.460  0.00  0.00     0.000 C
ATOM    301  C4  NTP I 433      23.940   8.696   -2.870  0.00  0.00     0.000 C
ATOM    302  C5  NTP I 433      22.430   8.631   -2.960  0.00  0.00     0.000 C
ATOM    303  O5  NTP I 433      21.900   9.765   -2.250  0.00  0.00     0.000 O
ATOM    304  C4  NTP I 433      19.610   9.557   -0.570  0.00  0.00     0.000 C
ATOM    305  C5  NTP I 433      19.130  10.095    0.760  0.00  0.00     0.000 C
ATOM    306  O5  NTP I 433      17.900  10.814    0.630  0.00  0.00     0.000 O
ATOM    307   C  NTP I 433      20.170  11.044    1.380  0.00  0.00     0.000 C
ATOM    308   O  NTP I 433      20.300  12.238    0.600  0.00  0.00     0.000 O
ATOM    309   S  NTP I 433      21.110  13.328    1.060  0.00  0.00     0.000 S
ATOM    310   O  NTP I 433      22.540  12.895    1.150  0.00  0.00     0.000 OA
ATOM    311   O  NTP I 433      20.640  13.765    2.420  0.00  0.00     0.000 OA
ATOM    312   O  NTP I 433      20.990  14.474    0.100  0.00  0.00     0.000 OA
ATOM    313  C3  NTP I 433      18.510   8.686   -1.200  0.00  0.00     0.000 C
ATOM    314   O  NTP I 433      18.900   8.285   -2.510  0.00  0.00     0.000 O
ATOM    315   S  NTP I 433      19.040   6.866   -2.650  0.00  0.00     0.000 S
ATOM    316   O  NTP I 433      20.270   6.408   -1.940  0.00  0.00     0.000 OA
ATOM    317   O  NTP I 433      19.160   6.529   -4.110  0.00  0.00     0.000 OA
ATOM    318   O  NTP I 433      17.840   6.163   -2.080  0.00  0.00     0.000 OA
ATOM    319  C2  NTP I 433      17.210   9.501   -1.270  0.00  0.00     0.000 C
ATOM    320   O  NTP I 433      16.150   8.697   -1.790  0.00  0.00     0.000 O
ATOM    321   S  NTP I 433      15.320   9.441   -2.690  0.00  0.00     0.000 S
ATOM    322   O  NTP I 433      16.070   9.685   -3.960  0.00  0.00     0.000 OA
ATOM    323   O  NTP I 433      14.940  10.754   -2.080  0.00  0.00     0.000 OA
ATOM    324   O  NTP I 433      14.080   8.649   -2.990  0.00  0.00     0.000 OA
ATOM    325  C1  NTP I 433      16.840   9.990    0.120  0.00  0.00     0.000 C
ATOM    326   O  NTP I 433      16.640   8.861    0.980  0.00  0.00     0.000 O
ATOM    327   C  NTP I 433      16.210   9.310    2.270  0.00  0.00     0.000 C
ATOM    328   O  NTP I 433      23.650   9.273    0.830  0.00  0.00     0.000 O
ATOM    329   S  NTP I 433      23.540   8.301    1.880  0.00  0.00     0.000 S
ATOM    330   O  NTP I 433      22.110   7.885    2.060  0.00  0.00     0.000 OA
ATOM    331   O  NTP I 433      24.040   8.912    3.150  0.00  0.00     0.000 OA
ATOM    332   O  NTP I 433      24.370   7.097    1.540  0.00  0.00     0.000 OA
ATOM    333   O  NTP I 433      25.520   8.335   -1.120  0.00  0.00     0.000 O
ATOM    334   C  NTP I 433      26.280   8.990   -0.100  0.00  0.00     0.000 C
ATOM    335   O  NTP I 433      28.360  10.153  -16.660  0.00  0.00     0.000 O
ATOM    336   C  NTP I 433      28.280  10.880  -17.890  0.00  0.00     0.000 C
ATOM    337  C4  NTP I 433      27.150   9.415  -16.430  0.00  0.00     0.000 C
ATOM    338  C5  NTP I 433      26.240  10.237  -15.540  0.00  0.00     0.000 C
ATOM    339  O5  NTP I 433      25.100   9.473  -15.100  0.00  0.00     0.000 O
ATOM    340   C  NTP I 433      25.750  11.425  -16.370  0.00  0.00     0.000 C
ATOM    341   O  NTP I 433      24.880  12.297  -15.630  0.00  0.00     0.000 O
ATOM    342   S  NTP I 433      24.140  13.313  -16.320  0.00  0.00     0.000 S
ATOM    343   O  NTP I 433      22.940  12.692  -16.970  0.00  0.00     0.000 OA
ATOM    344   O  NTP I 433      25.000  13.964  -17.360  0.00  0.00     0.000 OA
ATOM    345   O  NTP I 433      23.700  14.348  -15.320  0.00  0.00     0.000 OA
ATOM    346  C3  NTP I 433      27.540   8.109  -15.760  0.00  0.00     0.000 C
ATOM    347   O  NTP I 433      28.310   7.320  -16.680  0.00  0.00     0.000 O
ATOM    348   C  NTP I 433      29.020   6.297  -15.980  0.00  0.00     0.000 C
ATOM    349  C2  NTP I 433      26.250   7.383  -15.370  0.00  0.00     0.000 C
ATOM    350   O  NTP I 433      26.560   6.131  -14.750  0.00  0.00     0.000 O
ATOM    351   S  NTP I 433      25.950   5.050  -15.470  0.00  0.00     0.000 S
ATOM    352   O  NTP I 433      26.590   4.924  -16.820  0.00  0.00     0.000 OA
ATOM    353   O  NTP I 433      24.480   5.308  -15.640  0.00  0.00     0.000 OA
ATOM    354   O  NTP I 433      26.150   3.774  -14.710  0.00  0.00     0.000 OA
ATOM    355  C1  NTP I 433      25.470   8.271  -14.400  0.00  0.00     0.000 C
ATOM    356  C4  NTP I 433      25.560   8.931  -12.110  0.00  0.00     0.000 C
ATOM    357  C5  NTP I 433      26.470   9.702  -11.170  0.00  0.00     0.000 C
ATOM    358  O5  NTP I 433      25.790  10.012   -9.940  0.00  0.00     0.000 O
ATOM    359   C  NTP I 433      26.880  11.007  -11.860  0.00  0.00     0.000 C
ATOM    360   O  NTP I 433      25.990  11.860  -12.060  0.00  0.00     0.000 OA
ATOM    361   O  NTP I 433      28.080  11.157  -12.180  0.00  0.00     0.000 OA
ATOM    362  C3  NTP I 433      25.080   7.673  -11.410  0.00  0.00     0.000 C
ATOM    363   O  NTP I 433      24.120   7.022  -12.250  0.00  0.00     0.000 O
ATOM    364   C  NTP I 433      23.940   5.658  -11.860  0.00  0.00     0.000 C
ATOM    365  C2  NTP I 433      24.410   8.048  -10.090  0.00  0.00     0.000 C
ATOM    366   O  NTP I 433      24.030   6.835   -9.420  0.00  0.00     0.000 O
ATOM    367   C  NTP I 433      23.050   7.092   -8.420  0.00  0.00     0.000 C
ATOM    368  C1  NTP I 433      25.400   8.830   -9.230  0.00  0.00     0.000 C
ATOM    369  C4  NTP I 433      25.650   9.489   -6.930  0.00  0.00     0.000 C
ATOM    370  C5  NTP I 433      25.570   8.326   -5.950  0.00  0.00     0.000 C
ATOM    371  O5  NTP I 433      26.250   8.564   -4.710  0.00  0.00     0.000 O
ATOM    372   C  NTP I 433      26.190   7.083   -6.600  0.00  0.00     0.000 C
ATOM    373   O  NTP I 433      27.570   7.297   -6.890  0.00  0.00     0.000 O
ATOM    374   S  NTP I 433      28.340   6.283   -7.550  0.00  0.00     0.000 S
ATOM    375   O  NTP I 433      27.890   6.157   -8.970  0.00  0.00     0.000 OA
ATOM    376   O  NTP I 433      28.140   4.977   -6.840  0.00  0.00     0.000 OA
ATOM    377   O  NTP I 433      29.790   6.658   -7.520  0.00  0.00     0.000 OA
ATOM    378  C3  NTP I 433      25.280  10.809   -6.250  0.00  0.00     0.000 C
ATOM    379   O  NTP I 433      25.610  11.898   -7.120  0.00  0.00     0.000 O
ATOM    380   S  NTP I 433      24.490  12.742   -7.420  0.00  0.00     0.000 S
ATOM    381   O  NTP I 433      23.900  13.281   -6.150  0.00  0.00     0.000 OA
ATOM    382   O  NTP I 433      24.970  13.881   -8.270  0.00  0.00     0.000 OA
ATOM    383   O  NTP I 433      23.440  11.967   -8.160  0.00  0.00     0.000 OA
ATOM    384  C2  NTP I 433      26.080  10.953   -4.940  0.00  0.00     0.000 C
ATOM    385   O  NTP I 433      25.690  12.155   -4.270  0.00  0.00     0.000 O
ATOM    386   S  NTP I 433      26.650  12.525   -3.270  0.00  0.00     0.000 S
ATOM    387   O  NTP I 433      26.550  14.000   -3.010  0.00  0.00     0.000 OA
ATOM    388   O  NTP I 433      28.030  12.192   -3.740  0.00  0.00     0.000 OA
ATOM    389   O  NTP I 433      26.360  11.787   -2.000  0.00  0.00     0.000 OA
ATOM    390  C1  NTP I 433      25.780   9.749   -4.050  0.00  0.00     0.000 C
ATOM    391   C  NTP I 433      22.030   8.743   -4.430  0.00  0.00     0.000 C
ATOM    392   O  NTP I 433      22.270   7.780   -5.180  0.00  0.00     0.000 OA
ATOM    393   O  NTP I 433      21.480   9.805   -4.810  0.00  0.00     0.000 OA
BRANCH 484 394
ATOM    394  O4  NTP I 433      20.810   8.798   -0.400  0.00  0.00     0.000 O
BRANCH 394 398
ATOM    395  C1  NTP I 433      16.840   9.990    0.120  0.00  0.00     0.000 C
ATOM    396  C2  NTP I 433      17.210   9.501   -1.270  0.00  0.00     0.000 C
ATOM    397  C3  NTP I 433      18.510   8.686   -1.200  0.00  0.00     0.000 C
ATOM    398  C4  NTP I 433      19.610   9.557   -0.570  0.00  0.00     0.000 C
ATOM    399  C5  NTP I 433      19.130  10.095    0.760  0.00  0.00     0.000 C
ATOM    400  O5  NTP I 433      17.900  10.814    0.630  0.00  0.00     0.000 O
ATOM    401   O  NTP I 433      16.640   8.861    0.980  0.00  0.00     0.000 O
ATOM    402   C  NTP I 433      16.210   9.310    2.270  0.00  0.00     0.000 C
ATOM    403   O  NTP I 433      16.070   9.685   -3.960  0.00  0.00     0.000 OA
ATOM    404   O  NTP I 433      14.940  10.754   -2.080  0.00  0.00     0.000 OA
ATOM    405   O  NTP I 433      14.080   8.649   -2.990  0.00  0.00     0.000 OA
ATOM    406   O  NTP I 433      16.150   8.697   -1.790  0.00  0.00     0.000 O
ATOM    407   S  NTP I 433      15.320   9.441   -2.690  0.00  0.00     0.000 S
ATOM    408   O  NTP I 433      18.900   8.285   -2.510  0.00  0.00     0.000 O
ATOM    409   S  NTP I 433      19.040   6.866   -2.650  0.00  0.00     0.000 S
ATOM    410   O  NTP I 433      20.270   6.408   -1.940  0.00  0.00     0.000 OA
ATOM    411   O  NTP I 433      19.160   6.529   -4.110  0.00  0.00     0.000 OA
ATOM    412   O  NTP I 433      17.840   6.163   -2.080  0.00  0.00     0.000 OA
ATOM    413   O  NTP I 433      28.360  10.153  -16.660  0.00  0.00     0.000 O
ATOM    414   C  NTP I 433      28.280  10.880  -17.890  0.00  0.00     0.000 C
ATOM    415  C4  NTP I 433      27.150   9.415  -16.430  0.00  0.00     0.000 C
ATOM    416  C5  NTP I 433      26.240  10.237  -15.540  0.00  0.00     0.000 C
ATOM    417  O5  NTP I 433      25.100   9.473  -15.100  0.00  0.00     0.000 O
ATOM    418   C  NTP I 433      25.750  11.425  -16.370  0.00  0.00     0.000 C
ATOM    419   O  NTP I 433      24.880  12.297  -15.630  0.00  0.00     0.000 O
ATOM    420   S  NTP I 433      24.140  13.313  -16.320  0.00  0.00     0.000 S
ATOM    421   O  NTP I 433      22.940  12.692  -16.970  0.00  0.00     0.000 OA
ATOM    422   O  NTP I 433      25.000  13.964  -17.360  0.00  0.00     0.000 OA
ATOM    423   O  NTP I 433      23.700  14.348  -15.320  0.00  0.00     0.000 OA
ATOM    424  C3  NTP I 433      27.540   8.109  -15.760  0.00  0.00     0.000 C
ATOM    425   O  NTP I 433      28.310   7.320  -16.680  0.00  0.00     0.000 O
ATOM    426   C  NTP I 433      29.020   6.297  -15.980  0.00  0.00     0.000 C
ATOM    427  C2  NTP I 433      26.250   7.383  -15.370  0.00  0.00     0.000 C
ATOM    428   O  NTP I 433      26.560   6.131  -14.750  0.00  0.00     0.000 O
ATOM    429   S  NTP I 433      25.950   5.050  -15.470  0.00  0.00     0.000 S
ATOM    430   O  NTP I 433      26.590   4.924  -16.820  0.00  0.00     0.000 OA
ATOM    431   O  NTP I 433      24.480   5.308  -15.640  0.00  0.00     0.000 OA
ATOM    432   O  NTP I 433      26.150   3.774  -14.710  0.00  0.00     0.000 OA
ATOM    433  C1  NTP I 433      25.470   8.271  -14.400  0.00  0.00     0.000 C
ATOM    434  C4  NTP I 433      25.560   8.931  -12.110  0.00  0.00     0.000 C
ATOM    435  C5  NTP I 433      26.470   9.702  -11.170  0.00  0.00     0.000 C
ATOM    436  O5  NTP I 433      25.790  10.012   -9.940  0.00  0.00     0.000 O
ATOM    437   C  NTP I 433      26.880  11.007  -11.860  0.00  0.00     0.000 C
ATOM    438   O  NTP I 433      25.990  11.860  -12.060  0.00  0.00     0.000 OA
ATOM    439   O  NTP I 433      28.080  11.157  -12.180  0.00  0.00     0.000 OA
ATOM    440  C3  NTP I 433      25.080   7.673  -11.410  0.00  0.00     0.000 C
ATOM    441   O  NTP I 433      24.120   7.022  -12.250  0.00  0.00     0.000 O
ATOM    442   C  NTP I 433      23.940   5.658  -11.860  0.00  0.00     0.000 C
ATOM    443  C2  NTP I 433      24.410   8.048  -10.090  0.00  0.00     0.000 C
ATOM    444   O  NTP I 433      24.030   6.835   -9.420  0.00  0.00     0.000 O
ATOM    445   C  NTP I 433      23.050   7.092   -8.420  0.00  0.00     0.000 C
ATOM    446  C1  NTP I 433      25.400   8.830   -9.230  0.00  0.00     0.000 C
ATOM    447  C4  NTP I 433      25.650   9.489   -6.930  0.00  0.00     0.000 C
ATOM    448  C5  NTP I 433      25.570   8.326   -5.950  0.00  0.00     0.000 C
ATOM    449  O5  NTP I 433      26.250   8.564   -4.710  0.00  0.00     0.000 O
ATOM    450   C  NTP I 433      26.190   7.083   -6.600  0.00  0.00     0.000 C
ATOM    451   O  NTP I 433      27.570   7.297   -6.890  0.00  0.00     0.000 O
ATOM    452   S  NTP I 433      28.340   6.283   -7.550  0.00  0.00     0.000 S
ATOM    453   O  NTP I 433      27.890   6.157   -8.970  0.00  0.00     0.000 OA
ATOM    454   O  NTP I 433      28.140   4.977   -6.840  0.00  0.00     0.000 OA
ATOM    455   O  NTP I 433      29.790   6.658   -7.520  0.00  0.00     0.000 OA
ATOM    456  C3  NTP I 433      25.280  10.809   -6.250  0.00  0.00     0.000 C
ATOM    457   O  NTP I 433      25.610  11.898   -7.120  0.00  0.00     0.000 O
ATOM    458   S  NTP I 433      24.490  12.742   -7.420  0.00  0.00     0.000 S
ATOM    459   O  NTP I 433      23.900  13.281   -6.150  0.00  0.00     0.000 OA
ATOM    460   O  NTP I 433      24.970  13.881   -8.270  0.00  0.00     0.000 OA
ATOM    461   O  NTP I 433      23.440  11.967   -8.160  0.00  0.00     0.000 OA
ATOM    462  C2  NTP I 433      26.080  10.953   -4.940  0.00  0.00     0.000 C
ATOM    463   O  NTP I 433      25.690  12.155   -4.270  0.00  0.00     0.000 O
ATOM    464   S  NTP I 433      26.650  12.525   -3.270  0.00  0.00     0.000 S
ATOM    465   O  NTP I 433      26.550  14.000   -3.010  0.00  0.00     0.000 OA
ATOM    466   O  NTP I 433      28.030  12.192   -3.740  0.00  0.00     0.000 OA
ATOM    467   O  NTP I 433      26.360  11.787   -2.000  0.00  0.00     0.000 OA
ATOM    468  C1  NTP I 433      25.780   9.749   -4.050  0.00  0.00     0.000 C
ATOM    469  C4  NTP I 433      23.940   8.696   -2.870  0.00  0.00     0.000 C
ATOM    470  C5  NTP I 433      22.430   8.631   -2.960  0.00  0.00     0.000 C
ATOM    471  O5  NTP I 433      21.900   9.765   -2.250  0.00  0.00     0.000 O
ATOM    472   C  NTP I 433      22.030   8.743   -4.430  0.00  0.00     0.000 C
ATOM    473   O  NTP I 433      22.270   7.780   -5.180  0.00  0.00     0.000 OA
ATOM    474   O  NTP I 433      21.480   9.805   -4.810  0.00  0.00     0.000 OA
ATOM    475  C3  NTP I 433      24.360   9.099   -1.460  0.00  0.00     0.000 C
ATOM    476   O  NTP I 433      25.520   8.335   -1.120  0.00  0.00     0.000 O
ATOM    477   C  NTP I 433      26.280   8.990   -0.100  0.00  0.00     0.000 C
ATOM    478  C2  NTP I 433      23.240   8.796   -0.450  0.00  0.00     0.000 C
ATOM    479   O  NTP I 433      23.650   9.273    0.830  0.00  0.00     0.000 O
ATOM    480   S  NTP I 433      23.540   8.301    1.880  0.00  0.00     0.000 S
ATOM    481   O  NTP I 433      22.110   7.885    2.060  0.00  0.00     0.000 OA
ATOM    482   O  NTP I 433      24.040   8.912    3.150  0.00  0.00     0.000 OA
ATOM    483   O  NTP I 433      24.370   7.097    1.540  0.00  0.00     0.000 OA
ATOM    484  C1  NTP I 433      21.960   9.542   -0.830  0.00  0.00     0.000 C
ATOM    485   C  NTP I 433      20.170  11.044    1.380  0.00  0.00     0.000 C
ATOM    486   O  NTP I 433      20.300  12.238    0.600  0.00  0.00     0.000 O
ATOM    487   S  NTP I 433      21.110  13.328    1.060  0.00  0.00     0.000 S
ATOM    488   O  NTP I 433      22.540  12.895    1.150  0.00  0.00     0.000 OA
ATOM    489   O  NTP I 433      20.640  13.765    2.420  0.00  0.00     0.000 OA
ATOM    490   O  NTP I 433      20.990  14.474    0.100  0.00  0.00     0.000 OA
ENDBRANCH 394 398
ENDBRANCH 484 394
ENDBRANCH 297 469
ENDBRANCH 468 297
ENDBRANCH 199 447
ENDBRANCH 446 199
ENDBRANCH 100 434
ENDBRANCH 433 100
TORSDOF 8