ROOT
ATOM      1  C1  H1S C 173     -15.970 -19.475  -24.390  0.00  0.00     0.000 C
ATOM      2  C2  H1S C 173     -16.060 -18.508  -25.570  0.00  0.00     0.000 C
ATOM      3  C3  H1S C 173     -14.730 -18.366  -26.310  0.00  0.00     0.000 C
ATOM      4  C4  H1S C 173     -13.950 -19.661  -26.230  0.00  0.00     0.000 C
ATOM      5  C5  H1S C 173     -13.690 -20.136  -25.010  0.00  0.00     0.000 C
ATOM      6  O5  H1S C 173     -14.610 -19.684  -23.960  0.00  0.00     0.000 O
ATOM      7  C1  H1S C 173     -20.010 -21.041  -21.410  0.00  0.00     0.000 C
ATOM      8   O  H1S C 173     -20.800 -18.085  -24.120  0.00  0.00     0.000 O
ATOM      9   N  H1S C 173     -18.460 -21.714  -19.620  0.00  0.00     0.000 N
ATOM     11  HD  H1S C 173     -17.960 -21.214  -19.120  0.00  0.00     0.000 HD
ATOM     11   O  H1S C 173     -20.470 -20.011  -20.500  0.00  0.00     0.000 OA
ATOM     12   S  H1S C 173     -21.400 -17.049  -25.140  0.00  0.00     0.000 S
ATOM     13   S  H1S C 173     -17.030 -21.591  -18.890  0.00  0.00     0.000 S
ATOM     14   O  H1S C 173     -22.410 -17.695  -26.050  0.00  0.00     0.000 OA
ATOM     15   O  H1S C 173     -22.050 -15.937  -24.390  0.00  0.00     0.000 OA
ATOM     16   O  H1S C 173     -20.300 -16.415  -25.940  0.00  0.00     0.000 OA
ATOM     17   O  H1S C 173     -16.490 -20.231  -19.120  0.00  0.00     0.000 OA
ATOM     18   O  H1S C 173     -17.170 -21.720  -17.410  0.00  0.00     0.000 OA
ATOM     19   O  H1S C 173     -16.080 -22.580  -19.500  0.00  0.00     0.000 OA
ATOM     20  C4  H1S C 173     -17.770 -20.025  -22.980  0.00  0.00     0.000 C
ATOM     21  C5  H1S C 173     -19.190 -19.492  -23.030  0.00  0.00     0.000 C
ATOM     22  C3  H1S C 173     -17.450 -20.627  -21.610  0.00  0.00     0.000 C
ATOM     23  O5  H1S C 173     -20.060 -20.603  -22.790  0.00  0.00     0.000 O
ATOM     24   C  H1S C 173     -19.560 -18.817  -24.360  0.00  0.00     0.000 C
ATOM     25  C2  H1S C 173     -18.590 -21.499  -21.060  0.00  0.00     0.000 C
ATOM     26   O  H1S C 173     -16.300 -21.482  -21.790  0.00  0.00     0.000 O
ATOM     28  HD  H1S C 173     -15.800 -20.982  -21.290  0.00  0.00     0.000 HD
ATOM     28   O  H1S C 173     -17.070 -18.943  -26.490  0.00  0.00     0.000 O
ATOM     29   S  H1S C 173     -16.710 -19.827  -27.720  0.00  0.00     0.000 S
ATOM     30   O  H1S C 173     -16.070 -18.764  -28.540  0.00  0.00     0.000 OA
ATOM     31   O  H1S C 173     -15.990 -21.094  -28.010  0.00  0.00     0.000 OA
ATOM     32   O  H1S C 173     -18.140 -19.884  -28.110  0.00  0.00     0.000 OA
ATOM     33   O  H1S C 173     -14.010 -17.274  -25.730  0.00  0.00     0.000 O
ATOM     35  HD  H1S C 173     -13.510 -16.774  -25.230  0.00  0.00     0.000 HD
ATOM     35   O  H1S C 173     -12.390 -21.617  -23.650  0.00  0.00     0.000 OA
ATOM     36   C  H1S C 173     -12.530 -21.027  -24.760  0.00  0.00     0.000 C
ATOM     37   O  H1S C 173     -11.660 -21.193  -25.650  0.00  0.00     0.000 OA
ENDROOT
BRANCH 69 38
ATOM     38  O4  H1S C 173     -16.810 -19.017  -23.310  0.00  0.00     0.000 O
BRANCH 38 42
ATOM     39  C1  H1S C 173     -20.010 -21.041  -21.410  0.00  0.00     0.000 C
ATOM     40  C2  H1S C 173     -18.590 -21.499  -21.060  0.00  0.00     0.000 C
ATOM     41  C3  H1S C 173     -17.450 -20.627  -21.610  0.00  0.00     0.000 C
ATOM     42  C4  H1S C 173     -17.770 -20.025  -22.980  0.00  0.00     0.000 C
ATOM     43  C5  H1S C 173     -19.190 -19.492  -23.030  0.00  0.00     0.000 C
ATOM     44  O5  H1S C 173     -20.060 -20.603  -22.790  0.00  0.00     0.000 O
ATOM     45   O  H1S C 173     -20.470 -20.011  -20.500  0.00  0.00     0.000 OA
ATOM     46   N  H1S C 173     -18.460 -21.714  -19.620  0.00  0.00     0.000 N
ATOM     48  HD  H1S C 173     -17.960 -21.214  -19.120  0.00  0.00     0.000 HD
ATOM     48   S  H1S C 173     -17.030 -21.591  -18.890  0.00  0.00     0.000 S
ATOM     49   O  H1S C 173     -16.490 -20.231  -19.120  0.00  0.00     0.000 OA
ATOM     50   O  H1S C 173     -17.170 -21.720  -17.410  0.00  0.00     0.000 OA
ATOM     51   O  H1S C 173     -16.080 -22.580  -19.500  0.00  0.00     0.000 OA
ATOM     52   O  H1S C 173     -16.300 -21.482  -21.790  0.00  0.00     0.000 O
ATOM     54  HD  H1S C 173     -15.800 -20.982  -21.290  0.00  0.00     0.000 HD
ATOM     54  C2  H1S C 173     -16.060 -18.508  -25.570  0.00  0.00     0.000 C
ATOM     55  O5  H1S C 173     -14.610 -19.684  -23.960  0.00  0.00     0.000 O
ATOM     56   O  H1S C 173     -11.660 -21.193  -25.650  0.00  0.00     0.000 OA
ATOM     57  C3  H1S C 173     -14.730 -18.366  -26.310  0.00  0.00     0.000 C
ATOM     58   O  H1S C 173     -17.070 -18.943  -26.490  0.00  0.00     0.000 O
ATOM     59  C5  H1S C 173     -13.690 -20.136  -25.010  0.00  0.00     0.000 C
ATOM     60  C4  H1S C 173     -13.950 -19.661  -26.230  0.00  0.00     0.000 C
ATOM     61   O  H1S C 173     -14.010 -17.274  -25.730  0.00  0.00     0.000 O
ATOM     63  HD  H1S C 173     -13.510 -16.774  -25.230  0.00  0.00     0.000 HD
ATOM     63   S  H1S C 173     -16.710 -19.827  -27.720  0.00  0.00     0.000 S
ATOM     64   C  H1S C 173     -12.530 -21.027  -24.760  0.00  0.00     0.000 C
ATOM     65   O  H1S C 173     -16.070 -18.764  -28.540  0.00  0.00     0.000 OA
ATOM     66   O  H1S C 173     -15.990 -21.094  -28.010  0.00  0.00     0.000 OA
ATOM     67   O  H1S C 173     -18.140 -19.884  -28.110  0.00  0.00     0.000 OA
ATOM     68   O  H1S C 173     -12.390 -21.617  -23.650  0.00  0.00     0.000 OA
ATOM     69  C1  H1S C 173     -15.970 -19.475  -24.390  0.00  0.00     0.000 C
ATOM     70   O  H1S C 173     -20.800 -18.085  -24.120  0.00  0.00     0.000 O
ATOM     71   S  H1S C 173     -21.400 -17.049  -25.140  0.00  0.00     0.000 S
ATOM     72   O  H1S C 173     -22.410 -17.695  -26.050  0.00  0.00     0.000 OA
ATOM     73   O  H1S C 173     -22.050 -15.937  -24.390  0.00  0.00     0.000 OA
ATOM     74   O  H1S C 173     -20.300 -16.415  -25.940  0.00  0.00     0.000 OA
ATOM     75   C  H1S C 173     -19.560 -18.817  -24.360  0.00  0.00     0.000 C
ENDBRANCH 38 42
ENDBRANCH 69 38
TORSDOF 2