ROOT
ATOM      1  C1  UAP A 301      12.650   6.584   15.510  0.00  0.00     0.000 C
ATOM      2  C2  UAP A 301      12.610   6.330   17.080  0.00  0.00     0.000 C
ATOM      3  C3  UAP A 301      12.020   7.642   17.750  0.00  0.00     0.000 C
ATOM      4  C4  UAP A 301      10.780   8.114   16.950  0.00  0.00     0.000 C
ATOM      5  C5  UAP A 301      10.530   7.646   15.690  0.00  0.00     0.000 C
ATOM      6  O5  UAP A 301      11.300   6.761   15.000  0.00  0.00     0.000 O
ATOM      7   S  UAP A 301      12.610   3.858   17.920  0.00  0.00     0.000 S
ATOM      8   O  UAP A 301      11.680   2.791   18.290  0.00  0.00     0.000 OA
ATOM      9   O  UAP A 301      13.580   3.647   16.820  0.00  0.00     0.000 OA
ATOM     10   O  UAP A 301      13.420   4.217   19.200  0.00  0.00     0.000 OA
ATOM     11   O  UAP A 301      11.740   5.150   17.450  0.00  0.00     0.000 O
ATOM     12   O  UAP A 301      13.040   8.684   17.750  0.00  0.00     0.000 O
ATOM     14  HD  UAP A 301      13.540   9.184   18.250  0.00  0.00     0.000 HD
ATOM     14   O  UAP A 301       9.070   7.615   13.670  0.00  0.00     0.000 OA
ATOM     15   C  UAP A 301       9.300   8.105   14.930  0.00  0.00     0.000 C
ATOM     16   O  UAP A 301       8.490   8.904   15.430  0.00  0.00     0.000 OA
ENDROOT
BRANCH 1 17
ATOM     17  O4  SGN A 302      13.220   5.429   14.920  0.00  0.00     0.000 O
BRANCH 17 21
ATOM     18  C1  SGN A 302      16.120   6.516   11.880  0.00  0.00     0.000 C
ATOM     19  C2  SGN A 302      14.750   6.009   11.440  0.00  0.00     0.000 C
ATOM     20  C3  SGN A 302      13.680   6.226   12.540  0.00  0.00     0.000 C
ATOM     21  C4  SGN A 302      14.160   5.398   13.790  0.00  0.00     0.000 C
ATOM     22  C5  SGN A 302      15.490   5.996   14.260  0.00  0.00     0.000 C
ATOM     23  O5  SGN A 302      16.510   5.908   13.180  0.00  0.00     0.000 O
ATOM     24   N  SGN A 302      14.460   6.672   10.170  0.00  0.00     0.000 N
ATOM     26  HD  SGN A 302      14.960   7.172   10.670  0.00  0.00     0.000 HD
ATOM     26   S  SGN A 302      15.240   6.173    8.750  0.00  0.00     0.000 S
ATOM     27   O  SGN A 302      14.710   7.050    7.740  0.00  0.00     0.000 OA
ATOM     28   O  SGN A 302      16.650   6.104    9.020  0.00  0.00     0.000 OA
ATOM     29   O  SGN A 302      14.890   4.735    8.400  0.00  0.00     0.000 OA
ATOM     30   O  SGN A 302      12.440   5.736   12.060  0.00  0.00     0.000 O
ATOM     32  HD  SGN A 302      12.940   6.236   12.560  0.00  0.00     0.000 HD
ATOM     32   C  SGN A 302      15.980   5.225   15.500  0.00  0.00     0.000 C
ATOM     33   O  SGN A 302      17.190   5.693   16.020  0.00  0.00     0.000 O
ATOM     34   S  SGN A 302      17.530   4.767   17.240  0.00  0.00     0.000 S
ATOM     35   O  SGN A 302      18.870   5.105   17.620  0.00  0.00     0.000 OA
ATOM     36   O  SGN A 302      16.380   4.905   18.160  0.00  0.00     0.000 OA
ATOM     37   O  SGN A 302      17.580   3.297   16.800  0.00  0.00     0.000 OA
BRANCH 18 38
ATOM     38  O4  IDS A 303      16.160   7.951   11.810  0.00  0.00     0.000 O
BRANCH 38 42
ATOM     39  C1  IDS A 303      17.240  11.137   10.400  0.00  0.00     0.000 C
ATOM     40  C2  IDS A 303      17.200   9.923    9.460  0.00  0.00     0.000 C
ATOM     41  C3  IDS A 303      17.970   8.695   10.210  0.00  0.00     0.000 C
ATOM     42  C4  IDS A 303      17.490   8.460   11.680  0.00  0.00     0.000 C
ATOM     43  C5  IDS A 303      17.540   9.777   12.470  0.00  0.00     0.000 C
ATOM     44  O5  IDS A 303      16.750  10.814   11.770  0.00  0.00     0.000 O
ATOM     45   S  IDS A 303      15.430  10.321    7.630  0.00  0.00     0.000 S
ATOM     46   O  IDS A 303      14.020  10.247    7.470  0.00  0.00     0.000 OA
ATOM     47   O  IDS A 303      16.160  11.562    7.470  0.00  0.00     0.000 OA
ATOM     48   O  IDS A 303      16.020   9.352    6.600  0.00  0.00     0.000 OA
ATOM     49   O  IDS A 303      15.750   9.793    9.140  0.00  0.00     0.000 O
ATOM     50   O  IDS A 303      19.350   9.089   10.330  0.00  0.00     0.000 O
ATOM     52  HD  IDS A 303      19.850   9.589   10.830  0.00  0.00     0.000 HD
ATOM     52   O  IDS A 303      16.000  10.070   14.360  0.00  0.00     0.000 OA
ATOM     53   O  IDS A 303      17.580   8.553   14.660  0.00  0.00     0.000 OA
ATOM     54   C  IDS A 303      16.990   9.485   13.910  0.00  0.00     0.000 C
BRANCH 39 55
ATOM     55  O4  SGN A 304      18.550  11.725   10.370  0.00  0.00     0.000 O
BRANCH 55 59
ATOM     56  C1  SGN A 304      19.870  15.653   11.240  0.00  0.00     0.000 C
ATOM     57  C2  SGN A 304      20.100  14.542   12.270  0.00  0.00     0.000 C
ATOM     58  C3  SGN A 304      20.130  13.170   11.540  0.00  0.00     0.000 C
ATOM     59  C4  SGN A 304      18.690  13.020   11.030  0.00  0.00     0.000 C
ATOM     60  C5  SGN A 304      18.380  14.166   10.040  0.00  0.00     0.000 C
ATOM     61  O5  SGN A 304      18.540  15.421   10.670  0.00  0.00     0.000 O
ATOM     62   N  SGN A 304      21.320  14.862   12.920  0.00  0.00     0.000 N
ATOM     64  HD  SGN A 304      21.820  15.362   13.420  0.00  0.00     0.000 HD
ATOM     64   S  SGN A 304      20.970  15.589   14.350  0.00  0.00     0.000 S
ATOM     65   O  SGN A 304      22.220  15.881   14.980  0.00  0.00     0.000 OA
ATOM     66   O  SGN A 304      19.980  16.643   14.020  0.00  0.00     0.000 OA
ATOM     67   O  SGN A 304      20.240  14.537   15.200  0.00  0.00     0.000 OA
ATOM     68   O  SGN A 304      20.400  12.124   12.450  0.00  0.00     0.000 O
ATOM     70  HD  SGN A 304      20.900  12.624   12.950  0.00  0.00     0.000 HD
ATOM     70   C  SGN A 304      16.870  14.089    9.620  0.00  0.00     0.000 C
ATOM     71   O  SGN A 304      16.460  15.118    8.730  0.00  0.00     0.000 O
ATOM     72   S  SGN A 304      14.920  14.971    8.480  0.00  0.00     0.000 S
ATOM     73   O  SGN A 304      14.650  15.749    7.300  0.00  0.00     0.000 OA
ATOM     74   O  SGN A 304      14.630  13.558    8.530  0.00  0.00     0.000 OA
ATOM     75   O  SGN A 304      14.130  15.606    9.630  0.00  0.00     0.000 OA
BRANCH 56 76
ATOM     76  O4  IDS A 305      21.020  15.545   10.290  0.00  0.00     0.000 O
BRANCH 76 80
ATOM     77  C1  IDS A 305      24.410  16.586    9.350  0.00  0.00     0.000 C
ATOM     78  C2  IDS A 305      23.810  17.093   10.710  0.00  0.00     0.000 C
ATOM     79  C3  IDS A 305      22.370  17.726   10.450  0.00  0.00     0.000 C
ATOM     80  C4  IDS A 305      21.440  16.750    9.590  0.00  0.00     0.000 C
ATOM     81  C5  IDS A 305      22.220  16.305    8.300  0.00  0.00     0.000 C
ATOM     82  O5  IDS A 305      23.490  15.649    8.670  0.00  0.00     0.000 O
ATOM     83   O  IDS A 305      23.750  15.934   11.590  0.00  0.00     0.000 O
ATOM     84   S  IDS A 305      24.960  15.977   12.640  0.00  0.00     0.000 S
ATOM     85   O  IDS A 305      24.810  14.831   13.500  0.00  0.00     0.000 OA
ATOM     86   O  IDS A 305      26.190  16.100   11.850  0.00  0.00     0.000 OA
ATOM     87   O  IDS A 305      24.810  17.259   13.480  0.00  0.00     0.000 OA
ATOM     88   O  IDS A 305      22.600  18.883    9.670  0.00  0.00     0.000 O
ATOM     90  HD  IDS A 305      23.100  19.383   10.170  0.00  0.00     0.000 HD
ATOM     90   C  IDS A 305      21.380  15.345    7.490  0.00  0.00     0.000 C
ATOM     91   O  IDS A 305      21.780  14.203    7.240  0.00  0.00     0.000 OA
ATOM     92   O  IDS A 305      20.190  15.768    7.030  0.00  0.00     0.000 OA
BRANCH 77 93
ATOM     93  O4  SGN A 306      24.840  17.700    8.470  0.00  0.00     0.000 O
BRANCH 93 97
ATOM     94  C1  SGN A 306      24.440  18.911    4.390  0.00  0.00     0.000 C
ATOM     95  C2  SGN A 306      23.520  19.497    5.440  0.00  0.00     0.000 C
ATOM     96  C3  SGN A 306      24.110  19.371    6.810  0.00  0.00     0.000 C
ATOM     97  C4  SGN A 306      24.290  17.872    7.080  0.00  0.00     0.000 C
ATOM     98  C5  SGN A 306      25.240  17.319    5.960  0.00  0.00     0.000 C
ATOM     99  O5  SGN A 306      24.670  17.518    4.650  0.00  0.00     0.000 O
ATOM    100   N  SGN A 306      23.300  20.864    5.170  0.00  0.00     0.000 N
ATOM    102  HD  SGN A 306      23.800  21.364    5.670  0.00  0.00     0.000 HD
ATOM    102   S  SGN A 306      21.730  21.180    4.850  0.00  0.00     0.000 S
ATOM    103   O  SGN A 306      21.660  22.630    4.610  0.00  0.00     0.000 OA
ATOM    104   O  SGN A 306      21.400  20.178    3.810  0.00  0.00     0.000 OA
ATOM    105   O  SGN A 306      20.910  20.778    6.120  0.00  0.00     0.000 OA
ATOM    106   O  SGN A 306      23.210  19.979    7.740  0.00  0.00     0.000 O
ATOM    108  HD  SGN A 306      23.710  20.479    8.240  0.00  0.00     0.000 HD
ATOM    108   C  SGN A 306      25.480  15.816    6.040  0.00  0.00     0.000 C
ATOM    109   O  SGN A 306      26.310  15.571    4.870  0.00  0.00     0.000 O
ATOM    110   S  SGN A 306      26.660  14.089    4.730  0.00  0.00     0.000 S
ATOM    111   O  SGN A 306      26.900  13.904    3.320  0.00  0.00     0.000 OA
ATOM    112   O  SGN A 306      27.700  13.877    5.730  0.00  0.00     0.000 OA
ATOM    113   O  SGN A 306      25.440  13.224    5.120  0.00  0.00     0.000 OA
ENDBRANCH 93 97
ENDBRANCH 77 93
ENDBRANCH 76 80
ENDBRANCH 56 76
ENDBRANCH 55 59
ENDBRANCH 39 55
ENDBRANCH 38 42
ENDBRANCH 18 38
ENDBRANCH 17 21
ENDBRANCH 1 17
TORSDOF 10