ROOT
ATOM      1  C1  IDS A   1      25.170 -36.652   32.920  0.00  0.00     0.000 C
ATOM      2  C2  IDS A   1      24.010 -35.764   33.370  0.00  0.00     0.000 C
ATOM      3  C3  IDS A   1      24.110 -35.486   34.870  0.00  0.00     0.000 C
ATOM      4  C4  IDS A   1      25.490 -34.921   35.210  0.00  0.00     0.000 C
ATOM      5  C5  IDS A   1      26.600 -35.827   34.660  0.00  0.00     0.000 C
ATOM      6  O5  IDS A   1      26.430 -36.033   33.240  0.00  0.00     0.000 O
ATOM      7   O  IDS A   1      24.060 -34.518   32.670  0.00  0.00     0.000 O
ATOM      8   S  IDS A   1      22.790 -34.148   32.130  0.00  0.00     0.000 S
ATOM      9   O  IDS A   1      22.990 -33.182   31.000  0.00  0.00     0.000 OA
ATOM     10   O  IDS A   1      21.950 -33.501   33.200  0.00  0.00     0.000 OA
ATOM     11   O  IDS A   1      22.080 -35.366   31.620  0.00  0.00     0.000 OA
ATOM     12   O  IDS A   1      23.860 -36.691   35.610  0.00  0.00     0.000 O
ATOM     14  HD  IDS A   1      24.360 -36.191   36.110  0.00  0.00     0.000 HD
ATOM     14   O  IDS A   1      25.620 -33.599   34.670  0.00  0.00     0.000 O
ATOM     16  HD  IDS A   1      26.120 -33.099   35.170  0.00  0.00     0.000 HD
ATOM     16   O  IDS A   1      28.220 -34.736   36.030  0.00  0.00     0.000 OA
ATOM     17   C  IDS A   1      27.970 -35.181   34.900  0.00  0.00     0.000 C
ATOM     18   O  IDS A   1      28.780 -35.154   33.950  0.00  0.00     0.000 OA
ENDROOT
BRANCH 1 19
ATOM     19  O4  SGN A   2      25.110 -37.918   33.520  0.00  0.00     0.000 O
BRANCH 19 23
ATOM     20  C1  SGN A   2      26.930 -41.664   33.030  0.00  0.00     0.000 C
ATOM     21  C2  SGN A   2      27.680 -40.630   33.880  0.00  0.00     0.000 C
ATOM     22  C3  SGN A   2      26.740 -39.510   34.330  0.00  0.00     0.000 C
ATOM     23  C4  SGN A   2      26.060 -38.906   33.100  0.00  0.00     0.000 C
ATOM     24  C5  SGN A   2      25.370 -39.995   32.280  0.00  0.00     0.000 C
ATOM     25  O5  SGN A   2      26.320 -41.008   31.910  0.00  0.00     0.000 O
ATOM     26   N  SGN A   2      28.310 -41.264   35.040  0.00  0.00     0.000 N
ATOM     28  HD  SGN A   2      28.810 -40.764   35.540  0.00  0.00     0.000 HD
ATOM     28   S  SGN A   2      29.810 -41.806   34.680  0.00  0.00     0.000 S
ATOM     29   O  SGN A   2      30.670 -40.654   34.260  0.00  0.00     0.000 OA
ATOM     30   O  SGN A   2      30.400 -42.461   35.890  0.00  0.00     0.000 OA
ATOM     31   O  SGN A   2      29.720 -42.806   33.560  0.00  0.00     0.000 OA
ATOM     32   O  SGN A   2      27.510 -38.500   35.000  0.00  0.00     0.000 O
ATOM     34  HD  SGN A   2      28.010 -38.000   35.500  0.00  0.00     0.000 HD
ATOM     34   O  SGN A   2      25.870 -38.839   30.200  0.00  0.00     0.000 O
ATOM     35   S  SGN A   2      25.590 -38.107   29.000  0.00  0.00     0.000 S
ATOM     36   O  SGN A   2      24.530 -37.079   29.290  0.00  0.00     0.000 OA
ATOM     37   O  SGN A   2      26.830 -37.421   28.530  0.00  0.00     0.000 OA
ATOM     38   O  SGN A   2      25.100 -39.043   27.940  0.00  0.00     0.000 OA
ATOM     39   C  SGN A   2      24.810 -39.372   31.000  0.00  0.00     0.000 C
BRANCH 20 40
ATOM     40  O4  IDS A   3      25.960 -42.302   33.780  0.00  0.00     0.000 O
BRANCH 40 44
ATOM     41  C1  IDS A   3      24.460 -44.878   35.660  0.00  0.00     0.000 C
ATOM     42  C2  IDS A   3      25.970 -44.793   35.460  0.00  0.00     0.000 C
ATOM     43  C3  IDS A   3      26.320 -44.701   33.970  0.00  0.00     0.000 C
ATOM     44  C4  IDS A   3      25.520 -43.578   33.300  0.00  0.00     0.000 C
ATOM     45  C5  IDS A   3      24.030 -43.777   33.590  0.00  0.00     0.000 C
ATOM     46  O5  IDS A   3      23.800 -43.776   35.010  0.00  0.00     0.000 O
ATOM     47   O  IDS A   3      26.450 -43.624   36.140  0.00  0.00     0.000 O
ATOM     48   S  IDS A   3      27.000 -43.927   37.420  0.00  0.00     0.000 S
ATOM     49   O  IDS A   3      28.350 -44.560   37.250  0.00  0.00     0.000 OA
ATOM     50   O  IDS A   3      26.090 -44.852   38.180  0.00  0.00     0.000 OA
ATOM     51   O  IDS A   3      27.130 -42.653   38.200  0.00  0.00     0.000 OA
ATOM     52   O  IDS A   3      26.030 -45.945   33.330  0.00  0.00     0.000 O
ATOM     54  HD  IDS A   3      26.530 -45.445   33.830  0.00  0.00     0.000 HD
ATOM     54   O  IDS A   3      22.700 -41.806   33.750  0.00  0.00     0.000 OA
ATOM     55   O  IDS A   3      23.100 -42.613   31.730  0.00  0.00     0.000 OA
ATOM     56   C  IDS A   3      23.210 -42.638   32.970  0.00  0.00     0.000 C
BRANCH 41 57
ATOM     57  O4  SGN A   4      23.930 -46.076   35.170  0.00  0.00     0.000 O
BRANCH 57 61
ATOM     58  C1  SGN A   4      20.640 -48.456   36.180  0.00  0.00     0.000 C
ATOM     59  C2  SGN A   4      20.420 -47.390   35.110  0.00  0.00     0.000 C
ATOM     60  C3  SGN A   4      21.750 -46.905   34.520  0.00  0.00     0.000 C
ATOM     61  C4  SGN A   4      22.640 -46.440   35.670  0.00  0.00     0.000 C
ATOM     62  C5  SGN A   4      22.780 -47.549   36.720  0.00  0.00     0.000 C
ATOM     63  O5  SGN A   4      21.480 -47.908   37.210  0.00  0.00     0.000 O
ATOM     64   O  SGN A   4      21.250 -49.618   35.620  0.00  0.00     0.000 OA
ATOM     65   S  SGN A   4      18.000 -47.638   34.400  0.00  0.00     0.000 S
ATOM     66   O  SGN A   4      17.790 -46.166   34.600  0.00  0.00     0.000 OA
ATOM     67   O  SGN A   4      17.140 -48.106   33.260  0.00  0.00     0.000 OA
ATOM     68   O  SGN A   4      17.630 -48.379   35.650  0.00  0.00     0.000 OA
ATOM     69   N  SGN A   4      19.560 -47.915   34.030  0.00  0.00     0.000 N
ATOM     71  HD  SGN A   4      20.060 -47.415   34.530  0.00  0.00     0.000 HD
ATOM     71   O  SGN A   4      21.500 -45.806   33.640  0.00  0.00     0.000 O
ATOM     73  HD  SGN A   4      22.000 -45.306   34.140  0.00  0.00     0.000 HD
ATOM     73   O  SGN A   4      23.740 -48.032   38.890  0.00  0.00     0.000 O
ATOM     74   S  SGN A   4      24.320 -47.697   40.150  0.00  0.00     0.000 S
ATOM     75   O  SGN A   4      25.170 -46.469   40.000  0.00  0.00     0.000 OA
ATOM     76   O  SGN A   4      23.240 -47.424   41.150  0.00  0.00     0.000 OA
ATOM     77   O  SGN A   4      25.170 -48.843   40.620  0.00  0.00     0.000 OA
ATOM     78   C  SGN A   4      23.620 -47.025   37.880  0.00  0.00     0.000 C
ENDBRANCH 57 61
ENDBRANCH 41 57
ENDBRANCH 40 44
ENDBRANCH 20 40
ENDBRANCH 19 23
ENDBRANCH 1 19
TORSDOF 6