ROOT
ATOM      1  C1  NGY B   1      23.250  22.461   -3.740  0.00  0.00     0.000 C
ATOM      2  C2  NGY B   1      24.660  21.971   -3.800  0.00  0.00     0.000 C
ATOM      3  C3  NGY B   1      25.280  22.036   -2.450  0.00  0.00     0.000 C
ATOM      4  C4  NGY B   1      25.160  23.423   -1.920  0.00  0.00     0.000 C
ATOM      5  C5  NGY B   1      23.730  23.834   -1.930  0.00  0.00     0.000 C
ATOM      6  O5  NGY B   1      23.210  23.734   -3.200  0.00  0.00     0.000 O
ATOM      7   N  NGY B   1      24.670  20.610   -4.250  0.00  0.00     0.000 N
ATOM      9  HD  NGY B   1      25.170  21.110   -3.750  0.00  0.00     0.000 HD
ATOM      9   C  NGY B   1      25.560  20.151   -5.270  0.00  0.00     0.000 C
ATOM     10   O  NGY B   1      26.360  20.916   -5.790  0.00  0.00     0.000 OA
ATOM     11   C  NGY B   1      25.510  18.723   -5.700  0.00  0.00     0.000 C
ATOM     12   O  NGY B   1      26.600  21.672   -2.520  0.00  0.00     0.000 O
ATOM     14  HD  NGY B   1      27.100  22.172   -2.020  0.00  0.00     0.000 HD
ATOM     14   O  NGY B   1      25.650  23.470   -0.630  0.00  0.00     0.000 O
ATOM     16  HD  NGY B   1      26.150  23.970   -0.130  0.00  0.00     0.000 HD
ATOM     16   C  NGY B   1      23.610  25.236   -1.420  0.00  0.00     0.000 C
ATOM     17   O  NGY B   1      24.340  26.111   -2.210  0.00  0.00     0.000 O
ATOM     18   S  NGY B   1      23.980  27.537   -2.220  0.00  0.00     0.000 S
ATOM     19   O  NGY B   1      25.020  28.305   -2.850  0.00  0.00     0.000 OA
ATOM     20   O  NGY B   1      22.720  27.617   -2.980  0.00  0.00     0.000 OA
ATOM     21   O  NGY B   1      23.770  28.012   -0.870  0.00  0.00     0.000 OA
ENDROOT
BRANCH 1 22
ATOM     22  O4  BDP B   2      22.460  21.504   -3.010  0.00  0.00     0.000 O
BRANCH 22 26
ATOM     23  C1  BDP B   2      19.100  19.479   -3.810  0.00  0.00     0.000 C
ATOM     24  C2  BDP B   2      19.850  19.919   -5.020  0.00  0.00     0.000 C
ATOM     25  C3  BDP B   2      21.210  20.420   -4.670  0.00  0.00     0.000 C
ATOM     26  C4  BDP B   2      21.180  21.384   -3.530  0.00  0.00     0.000 C
ATOM     27  C5  BDP B   2      20.300  20.884   -2.430  0.00  0.00     0.000 C
ATOM     28  O5  BDP B   2      19.050  20.538   -2.920  0.00  0.00     0.000 O
ATOM     29   O  BDP B   2      19.990  18.847   -5.880  0.00  0.00     0.000 O
ATOM     31  HD  BDP B   2      20.490  19.347   -5.380  0.00  0.00     0.000 HD
ATOM     31   O  BDP B   2      21.730  21.041   -5.780  0.00  0.00     0.000 O
ATOM     33  HD  BDP B   2      22.230  21.541   -5.280  0.00  0.00     0.000 HD
ATOM     33   O  BDP B   2      19.600  23.003   -1.520  0.00  0.00     0.000 OA
ATOM     34   O  BDP B   2      20.600  21.607   -0.180  0.00  0.00     0.000 OA
ATOM     35   C  BDP B   2      20.160  21.890   -1.320  0.00  0.00     0.000 C
BRANCH 23 36
ATOM     36  O4  SGN B   3      17.800  18.990   -4.180  0.00  0.00     0.000 O
BRANCH 36 40
ATOM     37  C1  SGN B   3      15.540  15.795   -2.800  0.00  0.00     0.000 C
ATOM     38  C2  SGN B   3      15.240  17.158   -2.170  0.00  0.00     0.000 C
ATOM     39  C3  SGN B   3      15.870  18.307   -2.950  0.00  0.00     0.000 C
ATOM     40  C4  SGN B   3      17.340  18.035   -3.240  0.00  0.00     0.000 C
ATOM     41  C5  SGN B   3      17.520  16.620   -3.800  0.00  0.00     0.000 C
ATOM     42  O5  SGN B   3      16.940  15.659   -2.940  0.00  0.00     0.000 O
ATOM     43   N  SGN B   3      13.810  17.376   -2.040  0.00  0.00     0.000 N
ATOM     45  HD  SGN B   3      14.310  17.876   -1.540  0.00  0.00     0.000 HD
ATOM     45   S  SGN B   3      13.030  16.724   -0.820  0.00  0.00     0.000 S
ATOM     46   O  SGN B   3      13.110  15.272   -0.990  0.00  0.00     0.000 OA
ATOM     47   O  SGN B   3      11.650  17.170   -0.920  0.00  0.00     0.000 OA
ATOM     48   O  SGN B   3      13.690  17.185    0.400  0.00  0.00     0.000 OA
ATOM     49   O  SGN B   3      15.710  19.520   -2.240  0.00  0.00     0.000 O
ATOM     51  HD  SGN B   3      16.210  20.020   -1.740  0.00  0.00     0.000 HD
ATOM     51   C  SGN B   3      18.990  16.261   -3.980  0.00  0.00     0.000 C
ATOM     52   O  SGN B   3      19.580  16.140   -2.700  0.00  0.00     0.000 O
ATOM     53   S  SGN B   3      21.120  15.928   -2.570  0.00  0.00     0.000 S
ATOM     54   O  SGN B   3      21.760  17.050   -3.250  0.00  0.00     0.000 OA
ATOM     55   O  SGN B   3      21.420  14.663   -3.240  0.00  0.00     0.000 OA
ATOM     56   O  SGN B   3      21.420  15.900   -1.150  0.00  0.00     0.000 OA
BRANCH 37 57
ATOM     57  O4  IDS B   4      14.830  15.594   -4.040  0.00  0.00     0.000 O
BRANCH 57 61
ATOM     58  C1  IDS B   4      13.080  13.193   -6.110  0.00  0.00     0.000 C
ATOM     59  C2  IDS B   4      12.980  13.025   -4.620  0.00  0.00     0.000 C
ATOM     60  C3  IDS B   4      14.320  13.269   -3.950  0.00  0.00     0.000 C
ATOM     61  C4  IDS B   4      15.150  14.352   -4.570  0.00  0.00     0.000 C
ATOM     62  C5  IDS B   4      14.990  14.372   -6.060  0.00  0.00     0.000 C
ATOM     63  O5  IDS B   4      13.660  14.404   -6.390  0.00  0.00     0.000 O
ATOM     64   S  IDS B   4      10.670  13.343   -3.850  0.00  0.00     0.000 S
ATOM     65   O  IDS B   4       9.800  14.522   -3.730  0.00  0.00     0.000 OA
ATOM     66   O  IDS B   4      10.240  12.519   -4.960  0.00  0.00     0.000 OA
ATOM     67   O  IDS B   4      10.650  12.572   -2.630  0.00  0.00     0.000 OA
ATOM     68   O  IDS B   4      12.020  13.868   -4.110  0.00  0.00     0.000 O
ATOM     69   O  IDS B   4      15.040  12.095   -4.000  0.00  0.00     0.000 O
ATOM     71  HD  IDS B   4      15.540  12.595   -3.500  0.00  0.00     0.000 HD
ATOM     71   O  IDS B   4      14.970  16.588   -6.960  0.00  0.00     0.000 OA
ATOM     72   O  IDS B   4      16.910  15.607   -6.770  0.00  0.00     0.000 OA
ATOM     73   C  IDS B   4      15.660  15.587   -6.630  0.00  0.00     0.000 C
BRANCH 58 74
ATOM     74  O4  SGN B   5      13.760  12.055   -6.680  0.00  0.00     0.000 O
BRANCH 74 78
ATOM     75  C1  SGN B   5      13.620   9.891  -10.120  0.00  0.00     0.000 C
ATOM     76  C2  SGN B   5      14.750  10.909  -10.090  0.00  0.00     0.000 C
ATOM     77  C3  SGN B   5      14.840  11.682   -8.760  0.00  0.00     0.000 C
ATOM     78  C4  SGN B   5      13.500  11.937   -8.070  0.00  0.00     0.000 C
ATOM     79  C5  SGN B   5      12.490  10.817   -8.310  0.00  0.00     0.000 C
ATOM     80  O5  SGN B   5      12.430  10.507   -9.680  0.00  0.00     0.000 O
ENDBRANCH 74 78
ENDBRANCH 58 74
ENDBRANCH 57 61
ENDBRANCH 37 57
ENDBRANCH 36 40
ENDBRANCH 23 36
ENDBRANCH 22 26
ENDBRANCH 1 22
TORSDOF 8