ROOT
ATOM      1  C1  NGY A   1      20.650  11.449   47.420  0.00  0.00     0.000 C
ATOM      2  C2  NGY A   1      21.400  12.739   47.360  0.00  0.00     0.000 C
ATOM      3  C3  NGY A   1      21.980  12.886   46.000  0.00  0.00     0.000 C
ATOM      4  C4  NGY A   1      22.880  11.733   45.740  0.00  0.00     0.000 C
ATOM      5  C5  NGY A   1      22.060  10.487   45.850  0.00  0.00     0.000 C
ATOM      6  O5  NGY A   1      21.520  10.418   47.120  0.00  0.00     0.000 O
ATOM      7   C  NGY A   1      20.890  14.920   48.430  0.00  0.00     0.000 C
ATOM      8   O  NGY A   1      22.000  14.938   48.940  0.00  0.00     0.000 OA
ATOM      9   C  NGY A   1      19.930  16.039   48.670  0.00  0.00     0.000 C
ATOM     10   N  NGY A   1      20.500  13.824   47.610  0.00  0.00     0.000 N
ATOM     12  HD  NGY A   1      21.000  14.324   48.110  0.00  0.00     0.000 HD
ATOM     12   O  NGY A   1      22.670  14.072   45.900  0.00  0.00     0.000 O
ATOM     14  HD  NGY A   1      23.170  14.572   46.400  0.00  0.00     0.000 HD
ATOM     14   O  NGY A   1      23.410  11.840   44.480  0.00  0.00     0.000 O
ATOM     16  HD  NGY A   1      23.910  12.340   44.980  0.00  0.00     0.000 HD
ATOM     16   C  NGY A   1      22.880   9.268   45.560  0.00  0.00     0.000 C
ATOM     17   O  NGY A   1      24.050   9.247   46.300  0.00  0.00     0.000 O
ATOM     18   S  NGY A   1      24.790   7.977   46.470  0.00  0.00     0.000 S
ATOM     19   O  NGY A   1      25.240   7.477   45.200  0.00  0.00     0.000 OA
ATOM     20   O  NGY A   1      23.840   7.051   47.090  0.00  0.00     0.000 OA
ATOM     21   O  NGY A   1      25.930   8.208   47.330  0.00  0.00     0.000 OA
ENDROOT
BRANCH 1 22
ATOM     22  O4  BDP A   2      19.510  11.541   46.540  0.00  0.00     0.000 O
BRANCH 22 26
ATOM     23  C1  BDP A   2      15.560  10.840   46.830  0.00  0.00     0.000 C
ATOM     24  C2  BDP A   2      16.250  11.041   48.150  0.00  0.00     0.000 C
ATOM     25  C3  BDP A   2      17.610  11.603   47.950  0.00  0.00     0.000 C
ATOM     26  C4  BDP A   2      18.400  10.804   46.960  0.00  0.00     0.000 C
ATOM     27  C5  BDP A   2      17.550  10.500   45.750  0.00  0.00     0.000 C
ATOM     28  O5  BDP A   2      16.320   9.946   46.100  0.00  0.00     0.000 O
ATOM     29   O  BDP A   2      15.530  11.914   48.950  0.00  0.00     0.000 O
ATOM     31  HD  BDP A   2      16.030  12.414   49.450  0.00  0.00     0.000 HD
ATOM     31   O  BDP A   2      18.250  11.604   49.170  0.00  0.00     0.000 O
ATOM     33  HD  BDP A   2      18.750  12.104   49.670  0.00  0.00     0.000 HD
ATOM     33   O  BDP A   2      18.520  10.055   43.610  0.00  0.00     0.000 OA
ATOM     34   O  BDP A   2      18.550   8.430   45.060  0.00  0.00     0.000 OA
ATOM     35   C  BDP A   2      18.250   9.615   44.760  0.00  0.00     0.000 C
BRANCH 23 36
ATOM     36  O4  SGN A   3      14.200  10.394   47.040  0.00  0.00     0.000 O
BRANCH 36 40
ATOM     37  C1  SGN A   3      10.520  11.071   45.250  0.00  0.00     0.000 C
ATOM     38  C2  SGN A   3      11.290   9.830   44.800  0.00  0.00     0.000 C
ATOM     39  C3  SGN A   3      12.420   9.488   45.760  0.00  0.00     0.000 C
ATOM     40  C4  SGN A   3      13.320  10.698   45.970  0.00  0.00     0.000 C
ATOM     41  C5  SGN A   3      12.440  11.890   46.340  0.00  0.00     0.000 C
ATOM     42  O5  SGN A   3      11.440  12.132   45.360  0.00  0.00     0.000 O
ATOM     43   N  SGN A   3      10.410   8.682   44.650  0.00  0.00     0.000 N
ATOM     45  HD  SGN A   3      10.910   9.182   45.150  0.00  0.00     0.000 HD
ATOM     45   S  SGN A   3       9.540   8.599   43.310  0.00  0.00     0.000 S
ATOM     46   O  SGN A   3       8.630   9.730   43.290  0.00  0.00     0.000 OA
ATOM     47   O  SGN A   3      10.460   8.659   42.170  0.00  0.00     0.000 OA
ATOM     48   O  SGN A   3       8.840   7.318   43.390  0.00  0.00     0.000 OA
ATOM     49   O  SGN A   3      13.180   8.410   45.240  0.00  0.00     0.000 O
ATOM     51  HD  SGN A   3      13.680   8.910   45.740  0.00  0.00     0.000 HD
ATOM     51   C  SGN A   3      13.240  13.171   46.520  0.00  0.00     0.000 C
ATOM     52   O  SGN A   3      13.930  13.491   45.330  0.00  0.00     0.000 O
ATOM     53   S  SGN A   3      14.850  14.763   45.320  0.00  0.00     0.000 S
ATOM     54   O  SGN A   3      15.360  14.931   43.970  0.00  0.00     0.000 OA
ATOM     55   O  SGN A   3      14.000  15.866   45.750  0.00  0.00     0.000 OA
ATOM     56   O  SGN A   3      15.910  14.526   46.290  0.00  0.00     0.000 OA
BRANCH 37 57
ATOM     57  O4  IDS A   4       9.780  10.835   46.480  0.00  0.00     0.000 O
BRANCH 57 61
ATOM     58  C1  IDS A   4       6.600  11.509   48.270  0.00  0.00     0.000 C
ATOM     59  C2  IDS A   4       6.570  11.378   46.780  0.00  0.00     0.000 C
ATOM     60  C3  IDS A   4       7.740  12.063   46.110  0.00  0.00     0.000 C
ATOM     61  C4  IDS A   4       9.050  11.961   46.850  0.00  0.00     0.000 C
ATOM     62  C5  IDS A   4       8.810  12.004   48.340  0.00  0.00     0.000 C
ATOM     63  O5  IDS A   4       7.840  11.117   48.730  0.00  0.00     0.000 O
ATOM     64   O  IDS A   4       6.500  10.045   46.410  0.00  0.00     0.000 O
ATOM     65   S  IDS A   4       5.200   9.494   45.990  0.00  0.00     0.000 S
ATOM     66   O  IDS A   4       4.800  10.098   44.740  0.00  0.00     0.000 OA
ATOM     67   O  IDS A   4       5.400   8.047   45.830  0.00  0.00     0.000 OA
ATOM     68   O  IDS A   4       4.190   9.742   46.980  0.00  0.00     0.000 OA
ATOM     69   O  IDS A   4       7.420  13.400   45.980  0.00  0.00     0.000 O
ATOM     71  HD  IDS A   4       7.920  13.900   46.480  0.00  0.00     0.000 HD
ATOM     71   O  IDS A   4      10.970  12.517   49.240  0.00  0.00     0.000 OA
ATOM     72   O  IDS A   4      10.250  10.474   49.480  0.00  0.00     0.000 OA
ATOM     73   C  IDS A   4      10.080  11.650   49.060  0.00  0.00     0.000 C
BRANCH 58 74
ATOM     74  O4  SGN A   5       6.190  12.844   48.660  0.00  0.00     0.000 O
BRANCH 74 78
ATOM     75  C1  SGN A   5       4.360  14.580   51.970  0.00  0.00     0.000 C
ATOM     76  C2  SGN A   5       5.890  14.580   51.980  0.00  0.00     0.000 C
ATOM     77  C3  SGN A   5       6.450  14.169   50.620  0.00  0.00     0.000 C
ATOM     78  C4  SGN A   5       5.780  12.936   50.020  0.00  0.00     0.000 C
ATOM     79  C5  SGN A   5       4.270  13.087   50.140  0.00  0.00     0.000 C
ATOM     80  O5  SGN A   5       3.890  13.336   51.490  0.00  0.00     0.000 O
ATOM     81   N  SGN A   5       6.400  15.907   52.270  0.00  0.00     0.000 N
ATOM     83  HD  SGN A   5       6.900  16.407   52.770  0.00  0.00     0.000 HD
ATOM     83   S  SGN A   5       6.650  16.415   53.760  0.00  0.00     0.000 S
ATOM     84   O  SGN A   5       7.330  17.703   53.680  0.00  0.00     0.000 OA
ATOM     85   O  SGN A   5       5.340  16.559   54.390  0.00  0.00     0.000 OA
ATOM     86   O  SGN A   5       7.470  15.389   54.390  0.00  0.00     0.000 OA
ATOM     87   O  SGN A   5       7.840  13.948   50.740  0.00  0.00     0.000 O
ATOM     89  HD  SGN A   5       8.340  14.448   51.240  0.00  0.00     0.000 HD
ATOM     89   O  SGN A   5       3.150   8.641   51.510  0.00  0.00     0.000 OA
ATOM     90   C  SGN A   5       3.520  11.866   49.610  0.00  0.00     0.000 C
ATOM     91   O  SGN A   5       3.730  10.761   50.470  0.00  0.00     0.000 O
ATOM     92   S  SGN A   5       2.650   9.627   50.560  0.00  0.00     0.000 S
ATOM     93   O  SGN A   5       1.410  10.249   51.020  0.00  0.00     0.000 OA
ATOM     94   O  SGN A   5       2.500   9.033   49.230  0.00  0.00     0.000 OA
BRANCH 75 95
ATOM     95  O4  BDP A   6       3.890  15.702   51.190  0.00  0.00     0.000 O
BRANCH 95 99
ATOM     96  C1  BDP A   6       0.580  17.988   51.080  0.00  0.00     0.000 C
ATOM     97  C2  BDP A   6       1.040  17.621   52.440  0.00  0.00     0.000 C
ATOM     98  C3  BDP A   6       2.410  17.044   52.420  0.00  0.00     0.000 C
ATOM     99  C4  BDP A   6       2.550  15.972   51.390  0.00  0.00     0.000 C
ATOM    100  C5  BDP A   6       1.950  16.422   50.080  0.00  0.00     0.000 C
ATOM    101  O5  BDP A   6       0.650  16.870   50.270  0.00  0.00     0.000 O
ATOM    102   O  BDP A   6       1.040  18.761   53.220  0.00  0.00     0.000 O
ATOM    104  HD  BDP A   6       1.540  19.261   53.720  0.00  0.00     0.000 HD
ATOM    104   O  BDP A   6       2.680  16.519   53.670  0.00  0.00     0.000 O
ATOM    106  HD  BDP A   6       3.180  17.019   54.170  0.00  0.00     0.000 HD
ATOM    106   O  BDP A   6       2.830  15.298   48.160  0.00  0.00     0.000 OA
ATOM    107   O  BDP A   6       1.040  14.451   49.070  0.00  0.00     0.000 OA
ATOM    108   C  BDP A   6       1.940  15.330   49.050  0.00  0.00     0.000 C
ENDBRANCH 95 99
ENDBRANCH 75 95
ENDBRANCH 74 78
ENDBRANCH 58 74
ENDBRANCH 57 61
ENDBRANCH 37 57
ENDBRANCH 36 40
ENDBRANCH 23 36
ENDBRANCH 22 26
ENDBRANCH 1 22
TORSDOF 10