ROOT
ATOM      1  C1  GNS B 142     -24.860 -13.810   59.640  0.00  0.00     0.000 C
ATOM      2  C2  GNS B 142     -25.180 -12.800   58.540  0.00  0.00     0.000 C
ATOM      3  C3  GNS B 142     -26.640 -12.891   58.110  0.00  0.00     0.000 C
ATOM      4  C4  GNS B 142     -27.040 -14.338   57.850  0.00  0.00     0.000 C
ATOM      5  C5  GNS B 142     -26.600 -15.241   59.000  0.00  0.00     0.000 C
ATOM      6  O5  GNS B 142     -25.210 -15.105   59.190  0.00  0.00     0.000 O
ATOM      7   N  GNS B 142     -24.880 -11.458   59.000  0.00  0.00     0.000 N
ATOM      9  HD  GNS B 142     -24.380 -10.958   59.500  0.00  0.00     0.000 HD
ATOM      9   S  GNS B 142     -24.050 -10.458   58.070  0.00  0.00     0.000 S
ATOM     10   O  GNS B 142     -22.640 -10.799   58.240  0.00  0.00     0.000 OA
ATOM     11   O  GNS B 142     -24.500 -10.682   56.700  0.00  0.00     0.000 OA
ATOM     12   O  GNS B 142     -24.340  -9.106   58.540  0.00  0.00     0.000 OA
ATOM     13   O  GNS B 142     -26.830 -12.132   56.940  0.00  0.00     0.000 O
ATOM     15  HD  GNS B 142     -26.330 -11.632   57.440  0.00  0.00     0.000 HD
ATOM     15   O  GNS B 142     -28.440 -14.416   57.710  0.00  0.00     0.000 O
ATOM     17  HD  GNS B 142     -27.940 -13.916   58.210  0.00  0.00     0.000 HD
ATOM     17   C  GNS B 142     -26.930 -16.699   58.700  0.00  0.00     0.000 C
ATOM     18   O  GNS B 142     -25.760 -17.370   58.280  0.00  0.00     0.000 O
ATOM     20  HD  GNS B 142     -25.260 -16.870   58.780  0.00  0.00     0.000 HD
ENDROOT
BRANCH 1 20
ATOM     20  O4  IDY B 143     -25.610 -13.497   60.790  0.00  0.00     0.000 O
BRANCH 20 24
ATOM     21  C1  IDY B 143     -27.710 -11.289   62.910  0.00  0.00     0.000 C
ATOM     22  C2  IDY B 143     -26.390 -10.852   62.260  0.00  0.00     0.000 C
ATOM     23  C3  IDY B 143     -25.340 -11.968   62.250  0.00  0.00     0.000 C
ATOM     24  C4  IDY B 143     -25.870 -13.409   62.120  0.00  0.00     0.000 C
ATOM     25  C5  IDY B 143     -27.230 -13.660   62.780  0.00  0.00     0.000 C
ATOM     26  O5  IDY B 143     -28.160 -12.596   62.540  0.00  0.00     0.000 O
ATOM     27   O  IDY B 143     -27.600 -11.265   64.330  0.00  0.00     0.000 O
ATOM     28   C  IDY B 143     -27.020 -12.083   64.880  0.00  0.00     0.000 C
ATOM     29   S  IDY B 143     -27.330  -8.937   60.760  0.00  0.00     0.000 S
ATOM     30   O  IDY B 143     -26.620 -10.295   60.950  0.00  0.00     0.000 O
ATOM     31   O  IDY B 143     -27.900  -8.884   59.380  0.00  0.00     0.000 OA
ATOM     32   O  IDY B 143     -26.290  -7.905   60.890  0.00  0.00     0.000 OA
ATOM     33   O  IDY B 143     -28.400  -8.700   61.790  0.00  0.00     0.000 OA
ATOM     34   O  IDY B 143     -24.680 -11.857   63.510  0.00  0.00     0.000 O
ATOM     36  HD  IDY B 143     -24.180 -11.357   64.010  0.00  0.00     0.000 HD
ATOM     36   C  IDY B 143     -27.900 -14.865   62.190  0.00  0.00     0.000 C
ATOM     37   O  IDY B 143     -27.860 -15.936   62.880  0.00  0.00     0.000 OA
ATOM     38   O  IDY B 143     -28.530 -14.780   61.070  0.00  0.00     0.000 OA
ENDBRANCH 20 24
ENDBRANCH 1 20
TORSDOF 2