ROOT
ATOM      1  C1  GNX A 141      26.560  -6.184  -21.580  0.00  0.00     0.000 C
ATOM      2  C2  GNX A 141      26.590  -7.265  -22.660  0.00  0.00     0.000 C
ATOM      3  C3  GNX A 141      27.920  -7.258  -23.400  0.00  0.00     0.000 C
ATOM      4  C4  GNX A 141      28.300  -5.845  -23.830  0.00  0.00     0.000 C
ATOM      5  C5  GNX A 141      28.140  -4.864  -22.670  0.00  0.00     0.000 C
ATOM      6  O5  GNX A 141      26.830  -4.931  -22.170  0.00  0.00     0.000 O
ATOM      7   N  GNX A 141      26.360  -8.566  -22.060  0.00  0.00     0.000 N
ATOM      9  HD  GNX A 141      26.860  -8.066  -21.560  0.00  0.00     0.000 HD
ATOM      9   S  GNX A 141      24.970  -9.320  -22.290  0.00  0.00     0.000 S
ATOM     10   O  GNX A 141      24.700  -9.288  -23.730  0.00  0.00     0.000 OA
ATOM     11   O  GNX A 141      25.140 -10.680  -21.790  0.00  0.00     0.000 OA
ATOM     12   O  GNX A 141      23.960  -8.582  -21.540  0.00  0.00     0.000 OA
ATOM     13   O  GNX A 141      27.830  -8.086  -24.540  0.00  0.00     0.000 O
ATOM     14   O  GNX A 141      28.020  -9.391  -26.530  0.00  0.00     0.000 OA
ATOM     15   S  GNX A 141      28.650  -8.947  -25.240  0.00  0.00     0.000 S
ATOM     16   O  GNX A 141      30.080  -8.756  -25.500  0.00  0.00     0.000 OA
ATOM     17   O  GNX A 141      28.550 -10.055  -24.290  0.00  0.00     0.000 OA
ATOM     18   O  GNX A 141      29.630  -5.833  -24.280  0.00  0.00     0.000 O
ATOM     20  HD  GNX A 141      30.130  -5.333  -23.780  0.00  0.00     0.000 HD
ATOM     20   C  GNX A 141      28.440  -3.439  -23.120  0.00  0.00     0.000 C
ATOM     21   O  GNX A 141      27.500  -2.558  -22.550  0.00  0.00     0.000 O
ATOM     23  HD  GNX A 141      28.000  -2.058  -22.050  0.00  0.00     0.000 HD
ENDROOT
BRANCH 1 23
ATOM     23  O4  IDY A 142      27.530  -6.467  -20.600  0.00  0.00     0.000 O
BRANCH 23 27
ATOM     24  C1  IDY A 142      28.530  -8.163  -17.590  0.00  0.00     0.000 C
ATOM     25  C2  IDY A 142      27.390  -8.784  -18.390  0.00  0.00     0.000 C
ATOM     26  C3  IDY A 142      26.340  -7.711  -18.730  0.00  0.00     0.000 C
ATOM     27  C4  IDY A 142      26.910  -6.341  -19.130  0.00  0.00     0.000 C
ATOM     28  C5  IDY A 142      28.130  -5.867  -18.330  0.00  0.00     0.000 C
ATOM     29  O5  IDY A 142      29.060  -6.928  -18.090  0.00  0.00     0.000 O
ATOM     30   O  IDY A 142      28.810  -8.719  -16.130  0.00  0.00     0.000 O
ATOM     31   C  IDY A 142      28.860  -8.523  -15.170  0.00  0.00     0.000 C
ATOM     32   O  IDY A 142      27.830  -9.541  -19.540  0.00  0.00     0.000 O
ATOM     33   O  IDY A 142      29.180 -11.279  -20.660  0.00  0.00     0.000 OA
ATOM     34   O  IDY A 142      27.340 -11.995  -19.340  0.00  0.00     0.000 OA
ATOM     35   O  IDY A 142      29.350 -11.127  -18.250  0.00  0.00     0.000 OA
ATOM     36   S  IDY A 142      28.420 -10.982  -19.430  0.00  0.00     0.000 S
ATOM     37   O  IDY A 142      25.480  -7.556  -17.580  0.00  0.00     0.000 O
ATOM     39  HD  IDY A 142      25.980  -7.056  -17.080  0.00  0.00     0.000 HD
ATOM     39   C  IDY A 142      28.910  -4.865  -19.140  0.00  0.00     0.000 C
ATOM     40   O  IDY A 142      28.770  -3.592  -18.890  0.00  0.00     0.000 OA
ATOM     41   O  IDY A 142      29.710  -5.266  -20.030  0.00  0.00     0.000 OA
ENDBRANCH 23 27
ENDBRANCH 1 23
TORSDOF 2