ROOT
ATOM      1  C1  SGN B 141     -39.430  -4.987   17.880  0.00  0.00     0.000 C
ATOM      2  C2  SGN B 141     -40.810  -4.485   17.460  0.00  0.00     0.000 C
ATOM      3  C3  SGN B 141     -41.830  -4.898   18.500  0.00  0.00     0.000 C
ATOM      4  C4  SGN B 141     -41.730  -6.383   18.720  0.00  0.00     0.000 C
ATOM      5  C5  SGN B 141     -40.320  -6.849   19.040  0.00  0.00     0.000 C
ATOM      6  O5  SGN B 141     -39.410  -6.388   18.080  0.00  0.00     0.000 O
ATOM      7   N  SGN B 141     -40.800  -3.050   17.320  0.00  0.00     0.000 N
ATOM      9  HD  SGN B 141     -40.300  -2.550   17.820  0.00  0.00     0.000 HD
ATOM      9   S  SGN B 141     -40.900  -2.412   15.890  0.00  0.00     0.000 S
ATOM     10   O  SGN B 141     -41.420  -1.084   16.000  0.00  0.00     0.000 OA
ATOM     11   O  SGN B 141     -41.820  -3.266   15.210  0.00  0.00     0.000 OA
ATOM     12   O  SGN B 141     -39.610  -2.465   15.270  0.00  0.00     0.000 OA
ATOM     13   O  SGN B 141     -43.160  -4.657   18.110  0.00  0.00     0.000 O
ATOM     15  HD  SGN B 141     -42.660  -4.157   18.610  0.00  0.00     0.000 HD
ATOM     15   O  SGN B 141     -42.610  -6.583   19.790  0.00  0.00     0.000 O
ATOM     17  HD  SGN B 141     -42.110  -6.083   20.290  0.00  0.00     0.000 HD
ATOM     17   C  SGN B 141     -40.250  -8.358   19.010  0.00  0.00     0.000 C
ATOM     18   O  SGN B 141     -39.690  -8.744   17.770  0.00  0.00     0.000 O
ATOM     19   S  SGN B 141     -38.930 -10.090   17.740  0.00  0.00     0.000 S
ATOM     20   O  SGN B 141     -38.700 -10.458   16.360  0.00  0.00     0.000 OA
ATOM     21   O  SGN B 141     -39.820 -11.001   18.410  0.00  0.00     0.000 OA
ATOM     22   O  SGN B 141     -37.690  -9.942   18.490  0.00  0.00     0.000 OA
ENDROOT
BRANCH 1 23
ATOM     23  O4  IDY B 142     -39.040  -4.356   19.070  0.00  0.00     0.000 O
BRANCH 23 27
ATOM     24  C1  IDY B 142     -38.040  -1.250   21.050  0.00  0.00     0.000 C
ATOM     25  C2  IDY B 142     -38.130  -1.163   19.540  0.00  0.00     0.000 C
ATOM     26  C3  IDY B 142     -37.610  -2.365   18.820  0.00  0.00     0.000 C
ATOM     27  C4  IDY B 142     -37.780  -3.666   19.530  0.00  0.00     0.000 C
ATOM     28  C5  IDY B 142     -37.770  -3.621   21.050  0.00  0.00     0.000 C
ATOM     29  O5  IDY B 142     -38.430  -2.480   21.620  0.00  0.00     0.000 O
ATOM     30   O  IDY B 142     -37.000  -0.762   21.500  0.00  0.00     0.000 O
ATOM     31   C  IDY B 142     -35.670  -0.290   21.630  0.00  0.00     0.000 C
ATOM     32   O  IDY B 142     -41.570   0.357   19.440  0.00  0.00     0.000 OA
ATOM     33   O  IDY B 142     -39.640   1.365   18.410  0.00  0.00     0.000 OA
ATOM     34   O  IDY B 142     -39.620   0.999   20.790  0.00  0.00     0.000 OA
ATOM     35   S  IDY B 142     -40.100   0.456   19.480  0.00  0.00     0.000 S
ATOM     36   O  IDY B 142     -39.520  -0.915   19.220  0.00  0.00     0.000 O
ATOM     37   O  IDY B 142     -36.170  -2.136   18.540  0.00  0.00     0.000 O
ATOM     39  HD  IDY B 142     -35.670  -1.636   19.040  0.00  0.00     0.000 HD
ATOM     39   C  IDY B 142     -38.520  -4.806   21.610  0.00  0.00     0.000 C
ATOM     40   O  IDY B 142     -37.840  -5.661   22.340  0.00  0.00     0.000 OA
ATOM     41   O  IDY B 142     -39.840  -4.607   21.770  0.00  0.00     0.000 OA
ENDBRANCH 23 27
ENDBRANCH 1 23
TORSDOF 2