ROOT
ATOM      1  C1  SUS B 141      -2.320  12.358   17.360  0.00  0.00     0.000 C
ATOM      2  C2  SUS B 141      -2.210  11.456   16.140  0.00  0.00     0.000 C
ATOM      3  C3  SUS B 141      -0.940  11.757   15.350  0.00  0.00     0.000 C
ATOM      4  C4  SUS B 141      -0.790  13.256   15.120  0.00  0.00     0.000 C
ATOM      5  C5  SUS B 141      -0.990  14.033   16.410  0.00  0.00     0.000 C
ATOM      6  O5  SUS B 141      -2.250  13.707   16.960  0.00  0.00     0.000 O
ATOM      7   N  SUS B 141      -2.220  10.065   16.540  0.00  0.00     0.000 N
ATOM      9  HD  SUS B 141      -1.720  10.565   17.040  0.00  0.00     0.000 HD
ATOM      9   S  SUS B 141      -3.530   9.172   16.300  0.00  0.00     0.000 S
ATOM     10   O  SUS B 141      -4.670   9.979   16.710  0.00  0.00     0.000 OA
ATOM     11   O  SUS B 141      -3.560   8.849   14.880  0.00  0.00     0.000 OA
ATOM     12   O  SUS B 141      -3.380   7.977   17.130  0.00  0.00     0.000 OA
ATOM     13   O  SUS B 141      -0.080   8.840   14.770  0.00  0.00     0.000 OA
ATOM     14   O  SUS B 141      -1.340   9.276   12.800  0.00  0.00     0.000 OA
ATOM     15   O  SUS B 141      -1.000  11.094   14.100  0.00  0.00     0.000 O
ATOM     16   S  SUS B 141      -0.430   9.831   13.770  0.00  0.00     0.000 S
ATOM     17   O  SUS B 141       0.770  10.136   13.040  0.00  0.00     0.000 OA
ATOM     18   O  SUS B 141       0.490  13.522   14.610  0.00  0.00     0.000 O
ATOM     20  HD  SUS B 141       0.990  14.022   15.110  0.00  0.00     0.000 HD
ATOM     20   S  SUS B 141      -2.750  17.284   15.700  0.00  0.00     0.000 S
ATOM     21   C  SUS B 141      -0.920  15.534   16.170  0.00  0.00     0.000 C
ATOM     22   O  SUS B 141      -2.130  16.135   16.560  0.00  0.00     0.000 O
ATOM     23   O  SUS B 141      -2.070  17.266   14.410  0.00  0.00     0.000 OA
ATOM     24   O  SUS B 141      -4.170  16.988   15.540  0.00  0.00     0.000 OA
ATOM     25   O  SUS B 141      -2.520  18.531   16.430  0.00  0.00     0.000 OA
ENDROOT
BRANCH 1 26
ATOM     26  O4  IDY B 142      -1.250  12.081   18.240  0.00  0.00     0.000 O
BRANCH 26 30
ATOM     27  C1  IDY B 142       0.490  10.029   20.960  0.00  0.00     0.000 C
ATOM     28  C2  IDY B 142      -0.860   9.921   20.310  0.00  0.00     0.000 C
ATOM     29  C3  IDY B 142      -1.430  11.299   20.270  0.00  0.00     0.000 C
ATOM     30  C4  IDY B 142      -0.680  12.518   19.810  0.00  0.00     0.000 C
ATOM     31  C5  IDY B 142       0.700  12.514   20.450  0.00  0.00     0.000 C
ATOM     32  O5  IDY B 142       1.270  11.179   20.560  0.00  0.00     0.000 O
ATOM     33   O  IDY B 142       0.110  10.004   22.410  0.00  0.00     0.000 O
ATOM     34   C  IDY B 142       1.400  10.630   22.950  0.00  0.00     0.000 C
ATOM     35   S  IDY B 142      -0.380   7.784   18.950  0.00  0.00     0.000 S
ATOM     36   O  IDY B 142      -0.680   9.304   19.010  0.00  0.00     0.000 O
ATOM     37   O  IDY B 142       0.140   7.466   17.600  0.00  0.00     0.000 OA
ATOM     38   O  IDY B 142      -1.620   7.035   19.210  0.00  0.00     0.000 OA
ATOM     39   O  IDY B 142       0.600   7.378   19.990  0.00  0.00     0.000 OA
ATOM     40   O  IDY B 142      -2.740  11.479   20.990  0.00  0.00     0.000 OA
ATOM     41   O  IDY B 142       1.850  14.649   19.950  0.00  0.00     0.000 OA
ATOM     42   C  IDY B 142       1.600  13.392   19.610  0.00  0.00     0.000 C
ATOM     43   O  IDY B 142       2.210  12.929   18.580  0.00  0.00     0.000 OA
ENDBRANCH 26 30
ENDBRANCH 1 26
TORSDOF 2