ROOT
ATOM      1  C1  IDS A1714     -22.860  -2.222  -26.640  0.00  0.00     0.000 C
ATOM      2  C2  IDS A1714     -23.510  -3.361  -27.390  0.00  0.00     0.000 C
ATOM      3  C3  IDS A1714     -24.080  -4.447  -26.490  0.00  0.00     0.000 C
ATOM      4  C4  IDS A1714     -24.770  -3.943  -25.210  0.00  0.00     0.000 C
ATOM      5  C5  IDS A1714     -24.160  -2.653  -24.670  0.00  0.00     0.000 C
ATOM      6  O5  IDS A1714     -23.810  -1.717  -25.690  0.00  0.00     0.000 O
ATOM      7   O  IDS A1714     -24.570  -2.815  -28.180  0.00  0.00     0.000 O
ATOM      8   S  IDS A1714     -24.970  -3.316  -29.580  0.00  0.00     0.000 S
ATOM      9   O  IDS A1714     -23.910  -2.818  -30.470  0.00  0.00     0.000 OA
ATOM     10   O  IDS A1714     -24.950  -4.801  -29.530  0.00  0.00     0.000 OA
ATOM     11   O  IDS A1714     -26.320  -2.833  -29.930  0.00  0.00     0.000 OA
ATOM     12   O  IDS A1714     -23.050  -5.396  -26.160  0.00  0.00     0.000 O
ATOM     14  HD  IDS A1714     -22.550  -4.896  -25.660  0.00  0.00     0.000 HD
ATOM     14   O  IDS A1714     -25.160  -0.707  -23.720  0.00  0.00     0.000 OA
ATOM     15   O  IDS A1714     -25.480  -2.598  -22.650  0.00  0.00     0.000 OA
ATOM     16   C  IDS A1714     -24.990  -1.945  -23.610  0.00  0.00     0.000 C
ENDROOT
BRANCH 1 17
ATOM     17  O4  SGN A1713     -21.690  -2.811  -26.050  0.00  0.00     0.000 O
BRANCH 17 21
ATOM     18  C1  SGN A1713     -18.150  -1.495  -24.400  0.00  0.00     0.000 C
ATOM     19  C2  SGN A1713     -19.390  -1.235  -23.540  0.00  0.00     0.000 C
ATOM     20  C3  SGN A1713     -20.560  -2.081  -24.000  0.00  0.00     0.000 C
ATOM     21  C4  SGN A1713     -20.790  -1.838  -25.490  0.00  0.00     0.000 C
ATOM     22  C5  SGN A1713     -19.500  -2.051  -26.320  0.00  0.00     0.000 C
ATOM     23  O5  SGN A1713     -18.440  -1.232  -25.770  0.00  0.00     0.000 O
ATOM     24   N  SGN A1713     -19.130  -1.527  -22.150  0.00  0.00     0.000 N
ATOM     26  HD  SGN A1713     -18.630  -1.027  -21.650  0.00  0.00     0.000 HD
ATOM     26   S  SGN A1713     -18.380  -0.497  -21.180  0.00  0.00     0.000 S
ATOM     27   O  SGN A1713     -16.980  -0.581  -21.450  0.00  0.00     0.000 OA
ATOM     28   O  SGN A1713     -18.960   0.778  -21.500  0.00  0.00     0.000 OA
ATOM     29   O  SGN A1713     -18.630  -1.018  -19.680  0.00  0.00     0.000 OA
ATOM     30   O  SGN A1713     -21.730  -1.631  -23.310  0.00  0.00     0.000 O
ATOM     32  HD  SGN A1713     -21.230  -1.131  -22.810  0.00  0.00     0.000 HD
ATOM     32   C  SGN A1713     -19.620  -1.605  -27.740  0.00  0.00     0.000 C
ATOM     33   O  SGN A1713     -20.080  -0.247  -27.770  0.00  0.00     0.000 O
ATOM     34   S  SGN A1713     -20.560   0.285  -29.160  0.00  0.00     0.000 S
ATOM     35   O  SGN A1713     -21.670  -0.505  -29.730  0.00  0.00     0.000 OA
ATOM     36   O  SGN A1713     -19.330   0.090  -30.170  0.00  0.00     0.000 OA
ATOM     37   O  SGN A1713     -20.860   1.678  -28.920  0.00  0.00     0.000 OA
BRANCH 18 38
ATOM     38  O4  IDS A1712     -17.770  -2.874  -24.240  0.00  0.00     0.000 O
BRANCH 38 42
ATOM     39  C1  IDS A1712     -16.510  -6.010  -25.000  0.00  0.00     0.000 C
ATOM     40  C2  IDS A1712     -16.750  -5.588  -23.570  0.00  0.00     0.000 C
ATOM     41  C3  IDS A1712     -16.110  -4.225  -23.190  0.00  0.00     0.000 C
ATOM     42  C4  IDS A1712     -16.370  -3.169  -24.250  0.00  0.00     0.000 C
ATOM     43  C5  IDS A1712     -15.930  -3.756  -25.600  0.00  0.00     0.000 C
ATOM     44  O5  IDS A1712     -16.710  -4.918  -25.880  0.00  0.00     0.000 O
ATOM     45   O  IDS A1712     -18.160  -5.645  -23.330  0.00  0.00     0.000 O
ATOM     46   S  IDS A1712     -18.730  -5.788  -21.910  0.00  0.00     0.000 S
ATOM     47   O  IDS A1712     -20.060  -6.388  -22.140  0.00  0.00     0.000 OA
ATOM     48   O  IDS A1712     -17.810  -6.651  -21.170  0.00  0.00     0.000 OA
ATOM     49   O  IDS A1712     -18.800  -4.411  -21.340  0.00  0.00     0.000 OA
ATOM     50   O  IDS A1712     -14.700  -4.409  -23.030  0.00  0.00     0.000 O
ATOM     52  HD  IDS A1712     -14.200  -3.909  -22.530  0.00  0.00     0.000 HD
ATOM     52   O  IDS A1712     -15.280  -1.712  -26.550  0.00  0.00     0.000 OA
ATOM     53   O  IDS A1712     -16.680  -2.952  -27.700  0.00  0.00     0.000 OA
ATOM     54   C  IDS A1712     -15.980  -2.744  -26.700  0.00  0.00     0.000 C
BRANCH 39 55
ATOM     55  O4  SGN A1711     -15.180  -6.502  -25.100  0.00  0.00     0.000 O
BRANCH 55 59
ATOM     56  C1  SGN A1711     -13.100  -9.281  -27.280  0.00  0.00     0.000 C
ATOM     57  C2  SGN A1711     -13.260  -7.910  -27.970  0.00  0.00     0.000 C
ATOM     58  C3  SGN A1711     -13.730  -6.826  -26.980  0.00  0.00     0.000 C
ATOM     59  C4  SGN A1711     -14.980  -7.346  -26.250  0.00  0.00     0.000 C
ATOM     60  C5  SGN A1711     -14.670  -8.702  -25.560  0.00  0.00     0.000 C
ATOM     61  O5  SGN A1711     -14.300  -9.626  -26.600  0.00  0.00     0.000 O
ATOM     62   N  SGN A1711     -12.040  -7.557  -28.680  0.00  0.00     0.000 N
ATOM     64  HD  SGN A1711     -11.540  -7.057  -28.180  0.00  0.00     0.000 HD
ATOM     64   S  SGN A1711     -11.850  -7.996  -30.220  0.00  0.00     0.000 S
ATOM     65   O  SGN A1711     -12.140  -9.413  -30.310  0.00  0.00     0.000 OA
ATOM     66   O  SGN A1711     -12.740  -7.151  -30.960  0.00  0.00     0.000 OA
ATOM     67   O  SGN A1711     -10.310  -7.724  -30.510  0.00  0.00     0.000 OA
ATOM     68   O  SGN A1711     -14.020  -5.600  -27.660  0.00  0.00     0.000 O
ATOM     70  HD  SGN A1711     -13.520  -5.100  -27.160  0.00  0.00     0.000 HD
ATOM     70   C  SGN A1711     -15.830  -9.362  -24.800  0.00  0.00     0.000 C
ATOM     71   O  SGN A1711     -16.850  -9.605  -25.760  0.00  0.00     0.000 O
ATOM     72   S  SGN A1711     -18.210 -10.144  -25.260  0.00  0.00     0.000 S
ATOM     73   O  SGN A1711     -18.780  -9.042  -24.480  0.00  0.00     0.000 OA
ATOM     74   O  SGN A1711     -17.860 -11.374  -24.310  0.00  0.00     0.000 OA
ATOM     75   O  SGN A1711     -19.000 -10.427  -26.380  0.00  0.00     0.000 OA
BRANCH 56 76
ATOM     76  O4  IDS A1710     -12.000  -9.136  -26.380  0.00  0.00     0.000 O
BRANCH 76 80
ATOM     77  C1  IDS A1710      -8.710  -9.648  -25.130  0.00  0.00     0.000 C
ATOM     78  C2  IDS A1710      -8.990  -9.757  -26.640  0.00  0.00     0.000 C
ATOM     79  C3  IDS A1710     -10.190 -10.662  -26.970  0.00  0.00     0.000 C
ATOM     80  C4  IDS A1710     -11.410 -10.407  -26.080  0.00  0.00     0.000 C
ATOM     81  C5  IDS A1710     -10.960 -10.416  -24.610  0.00  0.00     0.000 C
ATOM     82  O5  IDS A1710      -9.940  -9.415  -24.430  0.00  0.00     0.000 O
ATOM     83   O  IDS A1710      -9.250  -8.442  -27.150  0.00  0.00     0.000 O
ATOM     84   S  IDS A1710      -8.100  -7.501  -27.650  0.00  0.00     0.000 S
ATOM     85   O  IDS A1710      -8.650  -6.176  -27.940  0.00  0.00     0.000 OA
ATOM     86   O  IDS A1710      -7.090  -7.459  -26.570  0.00  0.00     0.000 OA
ATOM     87   O  IDS A1710      -7.590  -8.203  -28.830  0.00  0.00     0.000 OA
ATOM     88   O  IDS A1710      -9.820 -12.039  -26.880  0.00  0.00     0.000 O
ATOM     90  HD  IDS A1710      -9.320 -11.539  -26.380  0.00  0.00     0.000 HD
ATOM     90   C  IDS A1710     -12.040 -10.157  -23.600  0.00  0.00     0.000 C
ATOM     91   O  IDS A1710     -12.980 -10.973  -23.480  0.00  0.00     0.000 OA
ATOM     92   O  IDS A1710     -11.950  -9.094  -22.940  0.00  0.00     0.000 OA
BRANCH 77 93
ATOM     93  O4  SGN A1709      -8.120 -10.884  -24.700  0.00  0.00     0.000 O
BRANCH 93 97
ATOM     94  C1  SGN A1709      -5.970 -12.397  -21.530  0.00  0.00     0.000 C
ATOM     95  C2  SGN A1709      -7.400 -11.982  -21.180  0.00  0.00     0.000 C
ATOM     96  C3  SGN A1709      -8.200 -11.793  -22.470  0.00  0.00     0.000 C
ATOM     97  C4  SGN A1709      -7.480 -10.842  -23.410  0.00  0.00     0.000 C
ATOM     98  C5  SGN A1709      -6.050 -11.309  -23.700  0.00  0.00     0.000 C
ATOM     99  O5  SGN A1709      -5.400 -11.455  -22.440  0.00  0.00     0.000 O
ENDBRANCH 93 97
ENDBRANCH 77 93
ENDBRANCH 76 80
ENDBRANCH 56 76
ENDBRANCH 55 59
ENDBRANCH 39 55
ENDBRANCH 38 42
ENDBRANCH 18 38
ENDBRANCH 17 21
ENDBRANCH 1 17
TORSDOF 10