ROOT
ATOM      1  C1  BDP A1199       0.150  15.267   -0.350  0.00  0.00     0.000 C
ATOM      2  C2  BDP A1199      -0.870  16.302    0.110  0.00  0.00     0.000 C
ATOM      3  C3  BDP A1199      -2.070  15.644    0.770  0.00  0.00     0.000 C
ATOM      4  C4  BDP A1199      -2.670  14.605   -0.150  0.00  0.00     0.000 C
ATOM      5  C5  BDP A1199      -1.610  13.580   -0.550  0.00  0.00     0.000 C
ATOM      6  O5  BDP A1199      -0.440  14.195   -1.090  0.00  0.00     0.000 O
ATOM      7   O  BDP A1199      -0.250  17.196    1.040  0.00  0.00     0.000 O
ATOM      9  HD  BDP A1199       0.250  17.696    1.540  0.00  0.00     0.000 HD
ATOM      9   O  BDP A1199      -3.070  16.618    1.100  0.00  0.00     0.000 O
ATOM     11  HD  BDP A1199      -2.570  17.118    1.600  0.00  0.00     0.000 HD
ATOM     11   O  BDP A1199      -1.710  11.456   -1.600  0.00  0.00     0.000 OA
ATOM     12   O  BDP A1199      -3.050  13.024   -2.360  0.00  0.00     0.000 OA
ATOM     13   C  BDP A1199      -2.170  12.622   -1.560  0.00  0.00     0.000 C
ENDROOT
BRANCH 1 14
ATOM     14  O3  BDP A1199       1.160  15.850   -1.190  0.00  0.00     0.000 O
BRANCH 14 17
ATOM     15  C1  ASG A1198       4.690  14.636   -2.090  0.00  0.00     0.000 C
ATOM     16  C2  ASG A1198       3.600  15.467   -1.390  0.00  0.00     0.000 C
ATOM     17  C3  ASG A1198       2.180  14.962   -1.680  0.00  0.00     0.000 C
ATOM     18  C4  ASG A1198       1.990  14.732   -3.180  0.00  0.00     0.000 C
ATOM     19  C5  ASG A1198       3.090  13.800   -3.670  0.00  0.00     0.000 C
ATOM     20  O5  ASG A1198       4.360  14.432   -3.470  0.00  0.00     0.000 O
ATOM     21   N  ASG A1198       3.750  15.215    0.030  0.00  0.00     0.000 N
ATOM     23  HD  ASG A1198       4.250  15.715    0.530  0.00  0.00     0.000 HD
ATOM     23   O  ASG A1198       3.700  15.894    2.150  0.00  0.00     0.000 OA
ATOM     24   C  ASG A1198       3.570  16.152    0.970  0.00  0.00     0.000 C
ATOM     25   C  ASG A1198       3.200  17.536    0.510  0.00  0.00     0.000 C
ATOM     26   S  ASG A1198       1.000  16.622   -4.680  0.00  0.00     0.000 S
ATOM     27   O  ASG A1198       2.130  15.998   -3.830  0.00  0.00     0.000 O
ATOM     28   O  ASG A1198       0.380  15.597   -5.550  0.00  0.00     0.000 OA
ATOM     29   O  ASG A1198      -0.020  17.179   -3.770  0.00  0.00     0.000 OA
ATOM     30   O  ASG A1198       1.560  17.708   -5.510  0.00  0.00     0.000 OA
ATOM     31   O  ASG A1198       1.510  13.313   -5.400  0.00  0.00     0.000 O
ATOM     33  HD  ASG A1198       2.010  13.813   -4.900  0.00  0.00     0.000 HD
ATOM     33   C  ASG A1198       2.910  13.417   -5.130  0.00  0.00     0.000 C
BRANCH 15 34
ATOM     34  O4  ASG A1198       5.950  15.320   -2.030  0.00  0.00     0.000 O
BRANCH 34 38
ATOM     35  C1  BDP A1197      10.130  14.715   -2.490  0.00  0.00     0.000 C
ATOM     36  C2  BDP A1197       9.340  15.120   -3.730  0.00  0.00     0.000 C
ATOM     37  C3  BDP A1197       7.920  15.609   -3.440  0.00  0.00     0.000 C
ATOM     38  C4  BDP A1197       7.150  14.676   -2.500  0.00  0.00     0.000 C
ATOM     39  C5  BDP A1197       8.010  14.283   -1.300  0.00  0.00     0.000 C
ATOM     40  O5  BDP A1197       9.350  13.866   -1.640  0.00  0.00     0.000 O
ATOM     41   O  BDP A1197      10.060  16.138   -4.440  0.00  0.00     0.000 O
ATOM     43  HD  BDP A1197      10.560  16.638   -3.940  0.00  0.00     0.000 HD
ATOM     43   O  BDP A1197       7.210  15.692   -4.680  0.00  0.00     0.000 O
ATOM     45  HD  BDP A1197       7.710  16.192   -4.180  0.00  0.00     0.000 HD
ATOM     45   C  BDP A1197       7.340  13.106   -0.660  0.00  0.00     0.000 C
ATOM     46   O  BDP A1197       6.880  13.223    0.490  0.00  0.00     0.000 OA
ATOM     47   O  BDP A1197       7.260  12.052   -1.330  0.00  0.00     0.000 OA
BRANCH 35 48
ATOM     48  O3  BDP A1197      11.340  14.052   -2.920  0.00  0.00     0.000 O
BRANCH 48 51
ATOM     49  C1  ASG A1196      14.580  13.075   -1.180  0.00  0.00     0.000 C
ATOM     50  C2  ASG A1196      13.720  13.670   -2.290  0.00  0.00     0.000 C
ATOM     51  C3  ASG A1196      12.240  13.527   -1.930  0.00  0.00     0.000 C
ATOM     52  C4  ASG A1196      11.990  12.033   -1.760  0.00  0.00     0.000 C
ATOM     53  C5  ASG A1196      12.900  11.493   -0.660  0.00  0.00     0.000 C
ATOM     54  O5  ASG A1196      14.270  11.691   -1.030  0.00  0.00     0.000 O
ATOM     55   O  ASG A1196      15.960  13.186   -1.530  0.00  0.00     0.000 OA
ATOM     56   C  ASG A1196      14.920  14.778   -4.530  0.00  0.00     0.000 C
ATOM     57   N  ASG A1196      14.050  15.090   -2.300  0.00  0.00     0.000 N
ATOM     59  HD  ASG A1196      14.550  15.590   -1.800  0.00  0.00     0.000 HD
ATOM     59   O  ASG A1196      14.930  16.847   -3.360  0.00  0.00     0.000 OA
ATOM     60   C  ASG A1196      14.640  15.662   -3.350  0.00  0.00     0.000 C
ATOM     61   O  ASG A1196      12.080  10.725   -5.250  0.00  0.00     0.000 OA
ATOM     62   O  ASG A1196      12.290   9.068   -3.520  0.00  0.00     0.000 OA
ATOM     63   S  ASG A1196      11.780  10.422   -3.840  0.00  0.00     0.000 S
ATOM     64   O  ASG A1196      12.510  11.458   -2.970  0.00  0.00     0.000 O
ATOM     65   O  ASG A1196      10.310  10.492   -3.620  0.00  0.00     0.000 OA
ATOM     66   O  ASG A1196      13.810   9.499    0.320  0.00  0.00     0.000 O
ATOM     68  HD  ASG A1196      14.310   9.999    0.820  0.00  0.00     0.000 HD
ATOM     68   C  ASG A1196      12.670  10.018   -0.370  0.00  0.00     0.000 C
ENDBRANCH 48 51
ENDBRANCH 35 48
ENDBRANCH 34 38
ENDBRANCH 15 34
ENDBRANCH 14 17
ENDBRANCH 1 14
TORSDOF 6