ROOT
ATOM      1  C1  SGN A 403      26.400 -68.763   69.890  0.00  0.00     0.000 C
ATOM      2  C2  SGN A 403      25.280 -68.148   69.060  0.00  0.00     0.000 C
ATOM      3  C3  SGN A 403      23.980 -68.081   69.880  0.00  0.00     0.000 C
ATOM      4  C4  SGN A 403      24.230 -67.507   71.270  0.00  0.00     0.000 C
ATOM      5  C5  SGN A 403      25.410 -68.209   71.940  0.00  0.00     0.000 C
ATOM      6  O5  SGN A 403      25.860 -69.291   71.110  0.00  0.00     0.000 O
ATOM      7   S  SGN A 403      25.620 -66.800   66.900  0.00  0.00     0.000 S
ATOM      8   O  SGN A 403      24.860 -65.562   66.420  0.00  0.00     0.000 OA
ATOM      9   O  SGN A 403      27.050 -66.761   66.350  0.00  0.00     0.000 OA
ATOM     10   O  SGN A 403      24.920 -68.060   66.390  0.00  0.00     0.000 OA
ATOM     11   N  SGN A 403      25.660 -66.818   68.560  0.00  0.00     0.000 N
ATOM     13  HD  SGN A 403      26.160 -66.318   69.060  0.00  0.00     0.000 HD
ATOM     13   O  SGN A 403      23.410 -69.397   69.980  0.00  0.00     0.000 O
ATOM     15  HD  SGN A 403      23.910 -68.897   70.480  0.00  0.00     0.000 HD
ATOM     15   O  SGN A 403      25.180 -70.169   73.350  0.00  0.00     0.000 O
ATOM     16   S  SGN A 403      26.420 -70.794   74.010  0.00  0.00     0.000 S
ATOM     17   O  SGN A 403      26.000 -72.050   74.780  0.00  0.00     0.000 OA
ATOM     18   O  SGN A 403      27.440 -71.176   72.940  0.00  0.00     0.000 OA
ATOM     19   O  SGN A 403      27.040 -69.792   74.990  0.00  0.00     0.000 OA
ATOM     20   C  SGN A 403      24.990 -68.748   73.310  0.00  0.00     0.000 C
ENDROOT
BRANCH 1 21
ATOM     21  O4  SGN A 403      27.400 -67.753   70.170  0.00  0.00     0.000 O
BRANCH 21 25
ATOM     22  C1  IDS A 402      31.440 -67.786   71.100  0.00  0.00     0.000 C
ATOM     23  C2  IDS A 402      30.990 -68.904   70.170  0.00  0.00     0.000 C
ATOM     24  C3  IDS A 402      29.610 -68.596   69.600  0.00  0.00     0.000 C
ATOM     25  C4  IDS A 402      28.610 -68.318   70.720  0.00  0.00     0.000 C
ATOM     26  C5  IDS A 402      29.220 -67.344   71.730  0.00  0.00     0.000 C
ATOM     27  O5  IDS A 402      30.420 -66.777   71.180  0.00  0.00     0.000 O
ATOM     28   O  IDS A 402      31.720 -68.330   72.410  0.00  0.00     0.000 OA
ATOM     29   O  IDS A 402      31.930 -69.040   69.070  0.00  0.00     0.000 O
ATOM     30   S  IDS A 402      33.330 -68.402   69.130  0.00  0.00     0.000 S
ATOM     31   O  IDS A 402      33.240 -67.013   69.770  0.00  0.00     0.000 OA
ATOM     32   O  IDS A 402      34.280 -69.290   69.970  0.00  0.00     0.000 OA
ATOM     33   O  IDS A 402      33.900 -68.263   67.700  0.00  0.00     0.000 OA
ATOM     34   O  IDS A 402      29.160 -69.718   68.830  0.00  0.00     0.000 O
ATOM     36  HD  IDS A 402      29.660 -69.218   69.330  0.00  0.00     0.000 HD
ATOM     36   O  IDS A 402      27.850 -65.460   71.130  0.00  0.00     0.000 OA
ATOM     37   O  IDS A 402      27.870 -66.124   73.290  0.00  0.00     0.000 OA
ATOM     38   C  IDS A 402      28.220 -66.215   72.080  0.00  0.00     0.000 C
ENDBRANCH 21 25
ENDBRANCH 1 21
TORSDOF 2