MODEL 1
REMARK VINA RESULT:      -6.2      0.000      0.000
REMARK  27 active torsions:
REMARK  status: ('A' for Active; 'I' for Inactive)
REMARK    1  A    between atoms: C2_1  and  O2_78 
REMARK    2  A    between atoms: C1_3  and  O4_50 
REMARK    3  A    between atoms: O4_5  and  C4_58 
REMARK    4  A    between atoms: O4_5  and  C1_27 
REMARK    5  A    between atoms: C2_6  and  N_39 
REMARK    6  A    between atoms: S1_9  and  N_39 
REMARK    7  A    between atoms: C6_10  and  C5_52 
REMARK    8  A    between atoms: C2_12  and  N_73 
REMARK    9  A    between atoms: C2_19  and  O2_24 
REMARK   10  A    between atoms: C2_21  and  O2_44 
REMARK   11  A    between atoms: S2_23  and  O6_65 
REMARK   12  A    between atoms: O2_24  and  S_54 
REMARK   13  A    between atoms: C1_28  and  O4_60 
REMARK   14  A    between atoms: C5_29  and  C6_38 
REMARK   15  A    between atoms: C5_30  and  C6_33 
REMARK   16  A    between atoms: S1_34  and  N_73 
REMARK   17  A    between atoms: C5_41  and  C6_46 
REMARK   18  A    between atoms: S_43  and  O2_44 
REMARK   19  A    between atoms: C6_46  and  O6_72 
REMARK   20  A    between atoms: O4_50  and  C4_71 
REMARK   21  A    between atoms: C1_56  and  O4_64 
REMARK   22  A    between atoms: O4_60  and  C4_83 
REMARK   23  A    between atoms: C4_61  and  O4_64 
REMARK   24  A    between atoms: S2_63  and  O6_72 
REMARK   25  A    between atoms: O6_65  and  C6_67 
REMARK   26  A    between atoms: C6_67  and  C5_75 
REMARK   27  A    between atoms: S_76  and  O2_78 
ROOT
ATOM      1  C2  IDS d 504     -16.581  51.427 175.861  0.00  0.00     0.226 C 
ATOM      2  O3  IDS d 504     -18.429  49.948 175.220  0.00  0.00    -0.218 OA
ATOM      3  O5  IDS d 504     -15.925  51.774 173.541  0.00  0.00    -0.318 OA
ATOM      4  C5  IDS d 504     -16.510  50.564 173.114  0.00  0.00     0.234 C 
ATOM      5  C1  IDS d 504     -16.564  52.369 174.675  0.00  0.00     0.269 C 
ATOM      6  C3  IDS d 504     -17.029  49.967 175.465  0.00  0.00     0.216 C 
ATOM      7  C4  IDS d 504     -16.345  49.494 174.192  0.00  0.00     0.189 C 
ENDROOT
BRANCH   5   8
ATOM      8  O4  SGN d 503     -17.880  52.760 174.404  0.00  0.00    -0.326 OA
BRANCH   8   9
ATOM      9  C4  SGN d 503     -17.983  53.962 173.714  0.00  0.00     0.180 C 
ATOM     10  C3  SGN d 503     -19.030  53.802 172.615  0.00  0.00     0.210 C 
ATOM     11  C2  SGN d 503     -19.301  55.167 172.009  0.00  0.00     0.207 C 
ATOM     12  O3  SGN d 503     -18.505  52.933 171.629  0.00  0.00    -0.218 OA
ATOM     13  C1  SGN d 503     -19.665  56.201 173.084  0.00  0.00     0.263 C 
ATOM     14  O5  SGN d 503     -18.635  56.269 174.039  0.00  0.00    -0.327 OA
ATOM     15  C5  SGN d 503     -18.414  55.062 174.700  0.00  0.00     0.179 C 
BRANCH  11  16
ATOM     16  N   SGN d 503     -20.339  55.100 170.996  0.00  0.00    -0.162 NA
BRANCH  16  17
ATOM     17  S1  SGN d 503     -20.200  56.087 169.709  0.00  0.00     0.227 S 
ATOM     18  O1S SGN d 503     -20.557  57.413 170.176  0.00  0.00    -0.577 OA
ATOM     19  O2S SGN d 503     -18.818  56.026 169.234  0.00  0.00    -0.577 OA
ATOM     20  O3S SGN d 503     -21.163  55.551 168.775  0.00  0.00    -0.577 OA
ENDBRANCH  16  17
ENDBRANCH  11  16
BRANCH  13  21
ATOM     21  O4  IDS d 502     -20.896  55.893 173.679  0.00  0.00    -0.326 OA
BRANCH  21  22
ATOM     22  C4  IDS d 502     -21.870  56.899 173.570  0.00  0.00     0.189 C 
ATOM     23  C3  IDS d 502     -23.106  56.344 172.835  0.00  0.00     0.216 C 
ATOM     24  O3  IDS d 502     -23.990  57.411 172.553  0.00  0.00    -0.218 OA
ATOM     25  C2  IDS d 502     -23.850  55.327 173.705  0.00  0.00     0.229 C 
ATOM     26  C1  IDS d 502     -24.082  55.849 175.119  0.00  0.00     0.301 C 
ATOM     27  O1  IDS d 502     -25.085  56.829 175.058  0.00  0.00    -0.187 OA
ATOM     28  O5  IDS d 502     -22.890  56.331 175.688  0.00  0.00    -0.316 OA
ATOM     29  C5  IDS d 502     -22.268  57.375 174.965  0.00  0.00     0.234 C 
BRANCH  25  30
ATOM     30  O2  IDS d 502     -23.043  54.183 173.791  0.00  0.00    -0.232 OA
BRANCH  30  31
ATOM     31  S   IDS d 502     -23.075  52.917 172.872  0.00  0.00     0.252 S 
ATOM     32  O3S IDS d 502     -24.132  52.100 173.408  0.00  0.00    -0.572 OA
ATOM     33  O2S IDS d 502     -21.765  52.319 172.979  0.00  0.00    -0.572 OA
ATOM     34  O1S IDS d 502     -23.363  53.366 171.538  0.00  0.00    -0.572 OA
ENDBRANCH  30  31
ENDBRANCH  25  30
BRANCH  29  35
ATOM     35  C6  IDS d 502     -21.124  57.978 175.768  0.00  0.00     0.216 C 
ATOM     36  O61 IDS d 502     -20.731  57.460 176.785  0.00  0.00    -0.646 OA
ATOM     37  O62 IDS d 502     -20.572  58.997 175.403  0.00  0.00    -0.646 OA
ENDBRANCH  29  35
ENDBRANCH  21  22
ENDBRANCH  13  21
BRANCH  15  38
ATOM     38  C6  SGN d 503     -17.390  55.389 175.754  0.00  0.00     0.198 C 
BRANCH  38  39
ATOM     39  O6  SGN d 503     -16.161  55.609 175.098  0.00  0.00    -0.235 OA
BRANCH  39  40
ATOM     40  S2  SGN d 503     -14.960  56.406 175.673  0.00  0.00     0.252 S 
ATOM     41  O4S SGN d 503     -14.850  56.108 177.061  0.00  0.00    -0.572 OA
ATOM     42  O5S SGN d 503     -13.775  55.991 174.930  0.00  0.00    -0.572 OA
ATOM     43  O6S SGN d 503     -15.336  57.755 175.496  0.00  0.00    -0.572 OA
ENDBRANCH  39  40
ENDBRANCH  38  39
ENDBRANCH  15  38
ENDBRANCH   8   9
ENDBRANCH   5   8
BRANCH   1  44
ATOM     44  O2  IDS d 504     -15.277  51.409 176.439  0.00  0.00    -0.233 OA
BRANCH  44  45
ATOM     45  S   IDS d 504     -14.857  52.036 177.780  0.00  0.00     0.252 S 
ATOM     46  O3S IDS d 504     -15.465  53.314 177.757  0.00  0.00    -0.572 OA
ATOM     47  O2S IDS d 504     -13.424  52.052 177.822  0.00  0.00    -0.572 OA
ATOM     48  O1S IDS d 504     -15.400  51.210 178.796  0.00  0.00    -0.572 OA
ENDBRANCH  44  45
ENDBRANCH   1  44
BRANCH   4  49
ATOM     49  C6  IDS d 504     -15.985  50.175 171.722  0.00  0.00     0.216 C 
ATOM     50  O62 IDS d 504     -16.516  49.273 171.070  0.00  0.00    -0.646 OA
ATOM     51  O61 IDS d 504     -15.014  50.740 171.235  0.00  0.00    -0.646 OA
ENDBRANCH   4  49
BRANCH   7  52
ATOM     52  O4  IDS d 504     -14.967  49.272 174.453  0.00  0.00    -0.326 OA
BRANCH  52  53
ATOM     53  C1  SGN d 505     -14.624  47.918 174.572  0.00  0.00     0.263 C 
ATOM     54  C2  SGN d 505     -13.332  47.737 175.345  0.00  0.00     0.207 C 
ATOM     55  C3  SGN d 505     -12.139  48.316 174.558  0.00  0.00     0.210 C 
ATOM     56  C4  SGN d 505     -12.139  47.575 173.190  0.00  0.00     0.180 C 
ATOM     57  O3  SGN d 505     -10.946  48.036 175.278  0.00  0.00    -0.218 OA
ATOM     58  C5  SGN d 505     -13.455  47.865 172.546  0.00  0.00     0.179 C 
ATOM     59  O5  SGN d 505     -14.496  47.334 173.307  0.00  0.00    -0.327 OA
BRANCH  54  60
ATOM     60  N   SGN d 505     -13.503  48.267 176.717  0.00  0.00    -0.162 NA
BRANCH  60  61
ATOM     61  S1  SGN d 505     -13.921  47.179 177.921  0.00  0.00     0.227 S 
ATOM     62  O3S SGN d 505     -13.835  47.874 179.156  0.00  0.00    -0.577 OA
ATOM     63  O1S SGN d 505     -15.257  46.700 177.633  0.00  0.00    -0.577 OA
ATOM     64  O2S SGN d 505     -12.930  46.132 177.836  0.00  0.00    -0.577 OA
ENDBRANCH  60  61
ENDBRANCH  54  60
BRANCH  56  65
ATOM     65  O4  SGN d 505     -11.157  47.999 172.267  0.00  0.00    -0.326 OA
BRANCH  65  66
ATOM     66  C1  IDS d 506     -10.069  48.785 172.614  0.00  0.00     0.269 C 
ATOM     67  C2  IDS d 506      -9.440  49.355 171.334  0.00  0.00     0.226 C 
ATOM     68  C3  IDS d 506      -8.030  49.967 171.561  0.00  0.00     0.219 C 
ATOM     69  O3  IDS d 506      -8.187  51.302 172.035  0.00  0.00    -0.218 OA
ATOM     70  C4  IDS d 506      -7.169  49.184 172.574  0.00  0.00     0.223 C 
ATOM     71  O4  IDS d 506      -6.600  48.094 171.886  0.00  0.00    -0.217 OA
ATOM     72  C5  IDS d 506      -8.028  48.671 173.735  0.00  0.00     0.237 C 
ATOM     73  O5  IDS d 506      -9.119  47.964 173.245  0.00  0.00    -0.318 OA
BRANCH  67  74
ATOM     74  O2  IDS d 506      -9.292  48.333 170.368  0.00  0.00    -0.233 OA
BRANCH  74  75
ATOM     75  S   IDS d 506      -9.362  48.457 168.785  0.00  0.00     0.252 S 
ATOM     76  O1S IDS d 506      -8.358  49.417 168.443  0.00  0.00    -0.572 OA
ATOM     77  O2S IDS d 506      -9.059  47.172 168.223  0.00  0.00    -0.572 OA
ATOM     78  O3S IDS d 506     -10.705  48.908 168.491  0.00  0.00    -0.572 OA
ENDBRANCH  74  75
ENDBRANCH  67  74
BRANCH  72  79
ATOM     79  C6  IDS d 506      -7.320  47.840 174.788  0.00  0.00     0.217 C 
ATOM     80  O61 IDS d 506      -7.771  46.750 175.111  0.00  0.00    -0.646 OA
ATOM     81  O62 IDS d 506      -6.309  48.228 175.346  0.00  0.00    -0.646 OA
ENDBRANCH  72  79
ENDBRANCH  65  66
ENDBRANCH  56  65
BRANCH  58  82
ATOM     82  C6  SGN d 505     -13.581  47.261 171.185  0.00  0.00     0.198 C 
BRANCH  82  83
ATOM     83  O6  SGN d 505     -13.278  45.918 171.355  0.00  0.00    -0.235 OA
BRANCH  83  84
ATOM     84  S2  SGN d 505     -13.397  44.809 170.319  0.00  0.00     0.252 S 
ATOM     85  O6S SGN d 505     -13.875  45.427 169.090  0.00  0.00    -0.572 OA
ATOM     86  O4S SGN d 505     -12.058  44.280 170.193  0.00  0.00    -0.572 OA
ATOM     87  O5S SGN d 505     -14.353  43.889 170.883  0.00  0.00    -0.572 OA
ENDBRANCH  83  84
ENDBRANCH  82  83
ENDBRANCH  58  82
ENDBRANCH  52  53
ENDBRANCH   7  52
TORSDOF 27

ENDMDL
