REMARK  27 active torsions:
REMARK  status: ('A' for Active; 'I' for Inactive)
REMARK    1  A    between atoms: C2_1  and  O2_78 
REMARK    2  A    between atoms: C1_3  and  O4_50 
REMARK    3  A    between atoms: O4_5  and  C4_58 
REMARK    4  A    between atoms: O4_5  and  C1_27 
REMARK    5  A    between atoms: C2_6  and  N_39 
REMARK    6  A    between atoms: S1_9  and  N_39 
REMARK    7  A    between atoms: C6_10  and  C5_52 
REMARK    8  A    between atoms: C2_12  and  N_73 
REMARK    9  A    between atoms: C2_19  and  O2_24 
REMARK   10  A    between atoms: C2_21  and  O2_44 
REMARK   11  A    between atoms: S2_23  and  O6_65 
REMARK   12  A    between atoms: O2_24  and  S_54 
REMARK   13  A    between atoms: C1_28  and  O4_60 
REMARK   14  A    between atoms: C5_29  and  C6_38 
REMARK   15  A    between atoms: C5_30  and  C6_33 
REMARK   16  A    between atoms: S1_34  and  N_73 
REMARK   17  A    between atoms: C5_41  and  C6_46 
REMARK   18  A    between atoms: S_43  and  O2_44 
REMARK   19  A    between atoms: C6_46  and  O6_72 
REMARK   20  A    between atoms: O4_50  and  C4_71 
REMARK   21  A    between atoms: C1_56  and  O4_64 
REMARK   22  A    between atoms: O4_60  and  C4_83 
REMARK   23  A    between atoms: C4_61  and  O4_64 
REMARK   24  A    between atoms: S2_63  and  O6_72 
REMARK   25  A    between atoms: O6_65  and  C6_67 
REMARK   26  A    between atoms: C6_67  and  C5_75 
REMARK   27  A    between atoms: S_76  and  O2_78 
ROOT
ATOM      1  C2  IDS d 504     -16.845  51.540 175.929  0.00  0.00     0.226 C 
ATOM      2  O3  IDS d 504     -18.723  50.079 175.335  0.00  0.00    -0.218 OA
ATOM      3  O5  IDS d 504     -16.155  51.761 173.603  0.00  0.00    -0.318 OA
ATOM      4  C5  IDS d 504     -16.766  50.548 173.226  0.00  0.00     0.234 C 
ATOM      5  C1  IDS d 504     -16.791  52.425 174.700  0.00  0.00     0.269 C 
ATOM      6  C3  IDS d 504     -17.325  50.075 175.596  0.00  0.00     0.216 C 
ATOM      7  C4  IDS d 504     -16.640  49.526 174.354  0.00  0.00     0.189 C 
ENDROOT
BRANCH   5   8
ATOM      8  O4  SGN d 503     -18.093  52.835 174.396  0.00  0.00    -0.326 OA
BRANCH   8   9
ATOM      9  C4  SGN d 503     -18.163  54.061 173.744  0.00  0.00     0.180 C 
ATOM     10  C3  SGN d 503     -19.171  53.946 172.603  0.00  0.00     0.210 C 
ATOM     11  C2  SGN d 503     -19.410  55.333 172.035  0.00  0.00     0.207 C 
ATOM     12  O3  SGN d 503     -18.616  53.107 171.608  0.00  0.00    -0.218 OA
ATOM     13  C1  SGN d 503     -19.806  56.333 173.131  0.00  0.00     0.263 C 
ATOM     14  O5  SGN d 503     -18.811  56.360 174.124  0.00  0.00    -0.327 OA
ATOM     15  C5  SGN d 503     -18.622  55.130 174.751  0.00  0.00     0.179 C 
BRANCH  11  16
ATOM     16  N   SGN d 503     -20.411  55.309 170.983  0.00  0.00    -0.162 NA
BRANCH  16  17
ATOM     17  S1  SGN d 503     -20.273  56.404 169.787  0.00  0.00     0.227 S 
ATOM     18  O1S SGN d 503     -20.554  57.695 170.386  0.00  0.00    -0.577 OA
ATOM     19  O2S SGN d 503     -18.913  56.330 169.255  0.00  0.00    -0.577 OA
ATOM     20  O3S SGN d 503     -21.292  55.997 168.846  0.00  0.00    -0.577 OA
ENDBRANCH  16  17
ENDBRANCH  11  16
BRANCH  13  21
ATOM     21  O4  IDS d 502     -21.060  56.015 173.670  0.00  0.00    -0.326 OA
BRANCH  21  22
ATOM     22  C4  IDS d 502     -21.889  57.120 173.923  0.00  0.00     0.189 C 
ATOM     23  C3  IDS d 502     -23.336  56.785 173.514  0.00  0.00     0.216 C 
ATOM     24  O3  IDS d 502     -24.117  57.962 173.583  0.00  0.00    -0.218 OA
ATOM     25  C2  IDS d 502     -23.949  55.752 174.464  0.00  0.00     0.229 C 
ATOM     26  C1  IDS d 502     -23.728  56.123 175.927  0.00  0.00     0.301 C 
ATOM     27  O1  IDS d 502     -24.575  57.199 176.232  0.00  0.00    -0.187 OA
ATOM     28  O5  IDS d 502     -22.376  56.410 176.183  0.00  0.00    -0.316 OA
ATOM     29  C5  IDS d 502     -21.837  57.464 175.410  0.00  0.00     0.234 C 
BRANCH  25  30
ATOM     30  O2  IDS d 502     -23.304  54.530 174.223  0.00  0.00    -0.232 OA
BRANCH  30  31
ATOM     31  S   IDS d 502     -23.538  53.542 173.033  0.00  0.00     0.252 S 
ATOM     32  O3S IDS d 502     -24.597  52.674 173.479  0.00  0.00    -0.572 OA
ATOM     33  O2S IDS d 502     -22.278  52.866 172.828  0.00  0.00    -0.572 OA
ATOM     34  O1S IDS d 502     -23.927  54.329 171.896  0.00  0.00    -0.572 OA
ENDBRANCH  30  31
ENDBRANCH  25  30
BRANCH  29  35
ATOM     35  C6  IDS d 502     -20.453  57.848 175.914  0.00  0.00     0.216 C 
ATOM     36  O61 IDS d 502     -19.872  57.171 176.727  0.00  0.00    -0.646 OA
ATOM     37  O62 IDS d 502     -19.893  58.847 175.506  0.00  0.00    -0.646 OA
ENDBRANCH  29  35
ENDBRANCH  21  22
ENDBRANCH  13  21
BRANCH  15  38
ATOM     38  C6  SGN d 503     -17.635  55.413 175.851  0.00  0.00     0.198 C 
BRANCH  38  39
ATOM     39  O6  SGN d 503     -16.440  55.857 175.246  0.00  0.00    -0.235 OA
BRANCH  39  40
ATOM     40  S2  SGN d 503     -15.425  56.849 175.873  0.00  0.00     0.252 S 
ATOM     41  O4S SGN d 503     -15.407  56.640 177.281  0.00  0.00    -0.572 OA
ATOM     42  O5S SGN d 503     -14.127  56.575 175.264  0.00  0.00    -0.572 OA
ATOM     43  O6S SGN d 503     -15.969  58.117 175.578  0.00  0.00    -0.572 OA
ENDBRANCH  39  40
ENDBRANCH  38  39
ENDBRANCH  15  38
ENDBRANCH   8   9
ENDBRANCH   5   8
BRANCH   1  44
ATOM     44  O2  IDS d 504     -15.548  51.517 176.522  0.00  0.00    -0.233 OA
BRANCH  44  45
ATOM     45  S   IDS d 504     -15.184  51.946 177.955  0.00  0.00     0.252 S 
ATOM     46  O3S IDS d 504     -16.021  53.062 178.192  0.00  0.00    -0.572 OA
ATOM     47  O2S IDS d 504     -13.779  52.230 177.979  0.00  0.00    -0.572 OA
ATOM     48  O1S IDS d 504     -15.510  50.852 178.795  0.00  0.00    -0.572 OA
ENDBRANCH  44  45
ENDBRANCH   1  44
BRANCH   4  49
ATOM     49  C6  IDS d 504     -16.236  50.081 171.860  0.00  0.00     0.216 C 
ATOM     50  O62 IDS d 504     -16.914  49.358 171.127  0.00  0.00    -0.646 OA
ATOM     51  O61 IDS d 504     -15.119  50.402 171.475  0.00  0.00    -0.646 OA
ENDBRANCH   4  49
BRANCH   7  52
ATOM     52  O4  IDS d 504     -15.271  49.282 174.642  0.00  0.00    -0.326 OA
BRANCH  52  53
ATOM     53  C1  SGN d 505     -14.952  47.923 174.770  0.00  0.00     0.263 C 
ATOM     54  C2  SGN d 505     -13.629  47.726 175.484  0.00  0.00     0.207 C 
ATOM     55  C3  SGN d 505     -12.463  48.264 174.632  0.00  0.00     0.210 C 
ATOM     56  C4  SGN d 505     -12.543  47.499 173.279  0.00  0.00     0.180 C 
ATOM     57  O3  SGN d 505     -11.243  47.970 175.300  0.00  0.00    -0.218 OA
ATOM     58  C5  SGN d 505     -13.882  47.808 172.692  0.00  0.00     0.179 C 
ATOM     59  O5  SGN d 505     -14.897  47.314 173.511  0.00  0.00    -0.327 OA
BRANCH  54  60
ATOM     60  N   SGN d 505     -13.724  48.284 176.853  0.00  0.00    -0.162 NA
BRANCH  60  61
ATOM     61  S1  SGN d 505     -14.423  47.322 178.034  0.00  0.00     0.227 S 
ATOM     62  O3S SGN d 505     -14.588  48.135 179.186  0.00  0.00    -0.577 OA
ATOM     63  O1S SGN d 505     -15.677  46.825 177.508  0.00  0.00    -0.577 OA
ATOM     64  O2S SGN d 505     -13.466  46.266 178.268  0.00  0.00    -0.577 OA
ENDBRANCH  60  61
ENDBRANCH  54  60
BRANCH  56  65
ATOM     65  O4  SGN d 505     -11.597  47.885 172.304  0.00  0.00    -0.326 OA
BRANCH  65  66
ATOM     66  C1  IDS d 506     -10.548  48.756 172.556  0.00  0.00     0.269 C 
ATOM     67  C2  IDS d 506      -9.989  49.261 171.218  0.00  0.00     0.226 C 
ATOM     68  C3  IDS d 506      -8.612  49.968 171.354  0.00  0.00     0.219 C 
ATOM     69  O3  IDS d 506      -8.835  51.324 171.732  0.00  0.00    -0.218 OA
ATOM     70  C4  IDS d 506      -7.679  49.315 172.396  0.00  0.00     0.223 C 
ATOM     71  O4  IDS d 506      -7.066  48.210 171.774  0.00  0.00    -0.217 OA
ATOM     72  C5  IDS d 506      -8.475  48.845 173.618  0.00  0.00     0.237 C 
ATOM     73  O5  IDS d 506      -9.535  48.041 173.217  0.00  0.00    -0.318 OA
BRANCH  67  74
ATOM     74  O2  IDS d 506      -9.807  48.178 170.327  0.00  0.00    -0.233 OA
BRANCH  74  75
ATOM     75  S   IDS d 506      -9.644  48.220 168.747  0.00  0.00     0.252 S 
ATOM     76  O1S IDS d 506      -8.616  49.185 168.505  0.00  0.00    -0.572 OA
ATOM     77  O2S IDS d 506      -9.241  46.915 168.305  0.00  0.00    -0.572 OA
ATOM     78  O3S IDS d 506     -10.936  48.623 168.235  0.00  0.00    -0.572 OA
ENDBRANCH  74  75
ENDBRANCH  67  74
BRANCH  72  79
ATOM     79  C6  IDS d 506      -7.691  48.138 174.708  0.00  0.00     0.217 C 
ATOM     80  O61 IDS d 506      -8.165  47.157 175.264  0.00  0.00    -0.646 OA
ATOM     81  O62 IDS d 506      -6.593  48.525 175.069  0.00  0.00    -0.646 OA
ENDBRANCH  72  79
ENDBRANCH  65  66
ENDBRANCH  56  65
BRANCH  58  82
ATOM     82  C6  SGN d 505     -14.085  47.183 171.350  0.00  0.00     0.198 C 
BRANCH  82  83
ATOM     83  O6  SGN d 505     -13.848  45.830 171.540  0.00  0.00    -0.235 OA
BRANCH  83  84
ATOM     84  S2  SGN d 505     -14.088  44.704 170.545  0.00  0.00     0.252 S 
ATOM     85  O6S SGN d 505     -14.505  45.325 169.295  0.00  0.00    -0.572 OA
ATOM     86  O4S SGN d 505     -12.813  44.032 170.436  0.00  0.00    -0.572 OA
ATOM     87  O5S SGN d 505     -15.133  43.910 171.142  0.00  0.00    -0.572 OA
ENDBRANCH  83  84
ENDBRANCH  82  83
ENDBRANCH  58  82
ENDBRANCH  52  53
ENDBRANCH   7  52
TORSDOF 27

