MODEL 1
REMARK VINA RESULT:       3.1      0.000      0.000
REMARK  27 active torsions:
REMARK  status: ('A' for Active; 'I' for Inactive)
REMARK    1  A    between atoms: C2_1  and  O2_78 
REMARK    2  A    between atoms: C1_3  and  O4_50 
REMARK    3  A    between atoms: O4_5  and  C4_58 
REMARK    4  A    between atoms: O4_5  and  C1_27 
REMARK    5  A    between atoms: C2_6  and  N_39 
REMARK    6  A    between atoms: S1_9  and  N_39 
REMARK    7  A    between atoms: C6_10  and  C5_52 
REMARK    8  A    between atoms: C2_12  and  N_73 
REMARK    9  A    between atoms: C2_19  and  O2_24 
REMARK   10  A    between atoms: C2_21  and  O2_44 
REMARK   11  A    between atoms: S2_23  and  O6_65 
REMARK   12  A    between atoms: O2_24  and  S_54 
REMARK   13  A    between atoms: C1_28  and  O4_60 
REMARK   14  A    between atoms: C5_29  and  C6_38 
REMARK   15  A    between atoms: C5_30  and  C6_33 
REMARK   16  A    between atoms: S1_34  and  N_73 
REMARK   17  A    between atoms: C5_41  and  C6_46 
REMARK   18  A    between atoms: S_43  and  O2_44 
REMARK   19  A    between atoms: C6_46  and  O6_72 
REMARK   20  A    between atoms: O4_50  and  C4_71 
REMARK   21  A    between atoms: C1_56  and  O4_64 
REMARK   22  A    between atoms: O4_60  and  C4_83 
REMARK   23  A    between atoms: C4_61  and  O4_64 
REMARK   24  A    between atoms: S2_63  and  O6_72 
REMARK   25  A    between atoms: O6_65  and  C6_67 
REMARK   26  A    between atoms: C6_67  and  C5_75 
REMARK   27  A    between atoms: S_76  and  O2_78 
ROOT
ATOM      1  C2  IDS d 504     -14.087  49.439 177.171  0.00  0.00     0.226 C 
ATOM      2  O3  IDS d 504     -13.415  47.684 178.746  0.00  0.00    -0.218 OA
ATOM      3  O5  IDS d 504     -14.376  47.838 175.358  0.00  0.00    -0.318 OA
ATOM      4  C5  IDS d 504     -13.491  46.906 175.938  0.00  0.00     0.234 C 
ATOM      5  C1  IDS d 504     -15.060  48.667 176.303  0.00  0.00     0.269 C 
ATOM      6  C3  IDS d 504     -12.919  48.534 177.720  0.00  0.00     0.216 C 
ATOM      7  C4  IDS d 504     -12.345  47.636 176.635  0.00  0.00     0.189 C 
ENDROOT
BRANCH   5   8
ATOM      8  O4  SGN d 503     -15.911  47.937 177.139  0.00  0.00    -0.326 OA
BRANCH   8   9
ATOM      9  C4  SGN d 503     -17.107  47.559 176.539  0.00  0.00     0.180 C 
ATOM     10  C3  SGN d 503     -17.585  48.703 175.649  0.00  0.00     0.210 C 
ATOM     11  C2  SGN d 503     -18.764  48.211 174.830  0.00  0.00     0.207 C 
ATOM     12  O3  SGN d 503     -17.991  49.771 176.484  0.00  0.00    -0.218 OA
ATOM     13  C1  SGN d 503     -18.427  46.918 174.073  0.00  0.00     0.263 C 
ATOM     14  O5  SGN d 503     -18.003  45.936 174.985  0.00  0.00    -0.327 OA
ATOM     15  C5  SGN d 503     -16.858  46.298 175.694  0.00  0.00     0.179 C 
BRANCH  11  16
ATOM     16  N   SGN d 503     -19.232  49.232 173.909  0.00  0.00    -0.162 NA
BRANCH  16  17
ATOM     17  S1  SGN d 503     -20.765  49.752 174.077  0.00  0.00     0.227 S 
ATOM     18  O1S SGN d 503     -20.700  50.947 174.897  0.00  0.00    -0.577 OA
ATOM     19  O2S SGN d 503     -21.302  50.028 172.745  0.00  0.00    -0.577 OA
ATOM     20  O3S SGN d 503     -21.416  48.652 174.753  0.00  0.00    -0.577 OA
ENDBRANCH  16  17
ENDBRANCH  11  16
BRANCH  13  21
ATOM     21  O4  IDS d 502     -17.460  47.153 173.086  0.00  0.00    -0.326 OA
BRANCH  21  22
ATOM     22  C4  IDS d 502     -17.833  46.760 171.790  0.00  0.00     0.189 C 
ATOM     23  C3  IDS d 502     -17.937  48.001 170.883  0.00  0.00     0.216 C 
ATOM     24  O3  IDS d 502     -18.505  47.619 169.646  0.00  0.00    -0.218 OA
ATOM     25  C2  IDS d 502     -16.553  48.595 170.607  0.00  0.00     0.229 C 
ATOM     26  C1  IDS d 502     -15.550  47.528 170.181  0.00  0.00     0.301 C 
ATOM     27  O1  IDS d 502     -15.864  47.140 168.870  0.00  0.00    -0.187 OA
ATOM     28  O5  IDS d 502     -15.544  46.445 171.078  0.00  0.00    -0.316 OA
ATOM     29  C5  IDS d 502     -16.790  45.795 171.232  0.00  0.00     0.234 C 
BRANCH  25  30
ATOM     30  O2  IDS d 502     -16.098  49.166 171.805  0.00  0.00    -0.232 OA
BRANCH  30  31
ATOM     31  S   IDS d 502     -15.567  50.620 172.032  0.00  0.00     0.252 S 
ATOM     32  O3S IDS d 502     -15.140  51.063 170.729  0.00  0.00    -0.572 OA
ATOM     33  O2S IDS d 502     -14.492  50.502 172.989  0.00  0.00    -0.572 OA
ATOM     34  O1S IDS d 502     -16.664  51.400 172.535  0.00  0.00    -0.572 OA
ENDBRANCH  30  31
ENDBRANCH  25  30
BRANCH  29  35
ATOM     35  C6  IDS d 502     -16.632  44.512 172.035  0.00  0.00     0.216 C 
ATOM     36  O61 IDS d 502     -15.558  44.171 172.466  0.00  0.00    -0.646 OA
ATOM     37  O62 IDS d 502     -17.588  43.798 172.269  0.00  0.00    -0.646 OA
ENDBRANCH  29  35
ENDBRANCH  21  22
ENDBRANCH  13  21
BRANCH  15  38
ATOM     38  C6  SGN d 503     -16.505  45.073 176.493  0.00  0.00     0.198 C 
BRANCH  38  39
ATOM     39  O6  SGN d 503     -17.676  44.644 177.154  0.00  0.00    -0.235 OA
BRANCH  39  40
ATOM     40  S2  SGN d 503     -18.064  43.168 177.435  0.00  0.00     0.252 S 
ATOM     41  O4S SGN d 503     -18.800  42.679 176.319  0.00  0.00    -0.572 OA
ATOM     42  O5S SGN d 503     -16.822  42.429 177.636  0.00  0.00    -0.572 OA
ATOM     43  O6S SGN d 503     -18.901  43.252 178.569  0.00  0.00    -0.572 OA
ENDBRANCH  39  40
ENDBRANCH  38  39
ENDBRANCH  15  38
ENDBRANCH   8   9
ENDBRANCH   5   8
BRANCH   1  44
ATOM     44  O2  IDS d 504     -13.562  50.520 176.403  0.00  0.00    -0.233 OA
BRANCH  44  45
ATOM     45  S   IDS d 504     -13.990  51.997 176.480  0.00  0.00     0.252 S 
ATOM     46  O3S IDS d 504     -13.801  52.329 177.842  0.00  0.00    -0.572 OA
ATOM     47  O2S IDS d 504     -15.346  52.080 176.022  0.00  0.00    -0.572 OA
ATOM     48  O1S IDS d 504     -13.108  52.714 175.633  0.00  0.00    -0.572 OA
ENDBRANCH  44  45
ENDBRANCH   1  44
BRANCH   4  49
ATOM     49  C6  IDS d 504     -13.061  45.855 174.900  0.00  0.00     0.216 C 
ATOM     50  O62 IDS d 504     -12.571  44.779 175.248  0.00  0.00    -0.646 OA
ATOM     51  O61 IDS d 504     -13.180  46.070 173.701  0.00  0.00    -0.646 OA
ENDBRANCH   4  49
BRANCH   7  52
ATOM     52  O4  IDS d 504     -11.629  48.429 175.699  0.00  0.00    -0.326 OA
BRANCH  52  53
ATOM     53  C1  SGN d 505     -10.240  48.403 175.879  0.00  0.00     0.263 C 
ATOM     54  C2  SGN d 505      -9.555  49.504 175.093  0.00  0.00     0.207 C 
ATOM     55  C3  SGN d 505      -9.700  49.265 173.578  0.00  0.00     0.210 C 
ATOM     56  C4  SGN d 505      -9.086  47.859 173.314  0.00  0.00     0.180 C 
ATOM     57  O3  SGN d 505      -8.963  50.267 172.890  0.00  0.00    -0.218 OA
ATOM     58  C5  SGN d 505      -9.874  46.888 174.133  0.00  0.00     0.179 C 
ATOM     59  O5  SGN d 505      -9.720  47.163 175.492  0.00  0.00    -0.327 OA
BRANCH  54  60
ATOM     60  N   SGN d 505     -10.035  50.820 175.575  0.00  0.00    -0.162 NA
BRANCH  60  61
ATOM     61  S1  SGN d 505      -8.897  52.035 175.770  0.00  0.00     0.227 S 
ATOM     62  O3S SGN d 505      -7.622  51.444 175.570  0.00  0.00    -0.577 OA
ATOM     63  O1S SGN d 505      -9.197  53.074 174.807  0.00  0.00    -0.577 OA
ATOM     64  O2S SGN d 505      -9.061  52.483 177.133  0.00  0.00    -0.577 OA
ENDBRANCH  60  61
ENDBRANCH  54  60
BRANCH  56  65
ATOM     65  O4  SGN d 505      -9.172  47.397 171.982  0.00  0.00    -0.326 OA
BRANCH  65  66
ATOM     66  C1  IDS d 506      -9.105  48.230 170.876  0.00  0.00     0.269 C 
ATOM     67  C2  IDS d 506      -9.310  47.389 169.608  0.00  0.00     0.226 C 
ATOM     68  C3  IDS d 506      -8.924  48.139 168.303  0.00  0.00     0.219 C 
ATOM     69  O3  IDS d 506     -10.028  48.947 167.902  0.00  0.00    -0.218 OA
ATOM     70  C4  IDS d 506      -7.682  49.043 168.451  0.00  0.00     0.223 C 
ATOM     71  O4  IDS d 506      -6.547  48.218 168.328  0.00  0.00    -0.217 OA
ATOM     72  C5  IDS d 506      -7.674  49.735 169.818  0.00  0.00     0.237 C 
ATOM     73  O5  IDS d 506      -7.819  48.794 170.830  0.00  0.00    -0.318 OA
BRANCH  67  74
ATOM     74  O2  IDS d 506      -8.510  46.224 169.662  0.00  0.00    -0.233 OA
BRANCH  74  75
ATOM     75  S   IDS d 506      -8.960  44.734 169.983  0.00  0.00     0.252 S 
ATOM     76  O1S IDS d 506      -8.625  43.984 168.812  0.00  0.00    -0.572 OA
ATOM     77  O2S IDS d 506      -8.213  44.277 171.120  0.00  0.00    -0.572 OA
ATOM     78  O3S IDS d 506     -10.385  44.804 170.226  0.00  0.00    -0.572 OA
ENDBRANCH  74  75
ENDBRANCH  67  74
BRANCH  72  79
ATOM     79  C6  IDS d 506      -6.481  50.622 170.123  0.00  0.00     0.217 C 
ATOM     80  O61 IDS d 506      -6.075  51.411 169.281  0.00  0.00    -0.646 OA
ATOM     81  O62 IDS d 506      -5.891  50.568 171.188  0.00  0.00    -0.646 OA
ENDBRANCH  72  79
ENDBRANCH  65  66
ENDBRANCH  56  65
BRANCH  58  82
ATOM     82  C6  SGN d 505      -9.434  45.474 173.939  0.00  0.00     0.198 C 
BRANCH  82  83
ATOM     83  O6  SGN d 505      -9.017  45.048 175.191  0.00  0.00    -0.235 OA
BRANCH  83  84
ATOM     84  S2  SGN d 505      -8.688  43.625 175.618  0.00  0.00     0.252 S 
ATOM     85  O6S SGN d 505      -8.685  43.610 177.074  0.00  0.00    -0.572 OA
ATOM     86  O4S SGN d 505      -9.747  42.819 175.054  0.00  0.00    -0.572 OA
ATOM     87  O5S SGN d 505      -7.383  43.371 175.060  0.00  0.00    -0.572 OA
ENDBRANCH  83  84
ENDBRANCH  82  83
ENDBRANCH  58  82
ENDBRANCH  52  53
ENDBRANCH   7  52
TORSDOF 27

ENDMDL
MODEL 2
REMARK VINA RESULT:       3.2      1.275      2.180
REMARK  27 active torsions:
REMARK  status: ('A' for Active; 'I' for Inactive)
REMARK    1  A    between atoms: C2_1  and  O2_78 
REMARK    2  A    between atoms: C1_3  and  O4_50 
REMARK    3  A    between atoms: O4_5  and  C4_58 
REMARK    4  A    between atoms: O4_5  and  C1_27 
REMARK    5  A    between atoms: C2_6  and  N_39 
REMARK    6  A    between atoms: S1_9  and  N_39 
REMARK    7  A    between atoms: C6_10  and  C5_52 
REMARK    8  A    between atoms: C2_12  and  N_73 
REMARK    9  A    between atoms: C2_19  and  O2_24 
REMARK   10  A    between atoms: C2_21  and  O2_44 
REMARK   11  A    between atoms: S2_23  and  O6_65 
REMARK   12  A    between atoms: O2_24  and  S_54 
REMARK   13  A    between atoms: C1_28  and  O4_60 
REMARK   14  A    between atoms: C5_29  and  C6_38 
REMARK   15  A    between atoms: C5_30  and  C6_33 
REMARK   16  A    between atoms: S1_34  and  N_73 
REMARK   17  A    between atoms: C5_41  and  C6_46 
REMARK   18  A    between atoms: S_43  and  O2_44 
REMARK   19  A    between atoms: C6_46  and  O6_72 
REMARK   20  A    between atoms: O4_50  and  C4_71 
REMARK   21  A    between atoms: C1_56  and  O4_64 
REMARK   22  A    between atoms: O4_60  and  C4_83 
REMARK   23  A    between atoms: C4_61  and  O4_64 
REMARK   24  A    between atoms: S2_63  and  O6_72 
REMARK   25  A    between atoms: O6_65  and  C6_67 
REMARK   26  A    between atoms: C6_67  and  C5_75 
REMARK   27  A    between atoms: S_76  and  O2_78 
ROOT
ATOM      1  C2  IDS d 504     -13.991  49.731 177.084  0.00  0.00     0.226 C 
ATOM      2  O3  IDS d 504     -13.295  48.160 178.834  0.00  0.00    -0.218 OA
ATOM      3  O5  IDS d 504     -14.175  47.955 175.427  0.00  0.00    -0.318 OA
ATOM      4  C5  IDS d 504     -13.272  47.117 176.112  0.00  0.00     0.234 C 
ATOM      5  C1  IDS d 504     -14.913  48.843 176.273  0.00  0.00     0.269 C 
ATOM      6  C3  IDS d 504     -12.804  48.927 177.742  0.00  0.00     0.216 C 
ATOM      7  C4  IDS d 504     -12.171  47.953 176.760  0.00  0.00     0.189 C 
ENDROOT
BRANCH   5   8
ATOM      8  O4  SGN d 503     -15.757  48.163 177.157  0.00  0.00    -0.326 OA
BRANCH   8   9
ATOM      9  C4  SGN d 503     -16.968  47.773 176.596  0.00  0.00     0.180 C 
ATOM     10  C3  SGN d 503     -17.452  48.884 175.667  0.00  0.00     0.210 C 
ATOM     11  C2  SGN d 503     -18.651  48.371 174.891  0.00  0.00     0.207 C 
ATOM     12  O3  SGN d 503     -17.831  49.990 176.464  0.00  0.00    -0.218 OA
ATOM     13  C1  SGN d 503     -18.341  47.044 174.183  0.00  0.00     0.263 C 
ATOM     14  O5  SGN d 503     -17.909  46.097 175.128  0.00  0.00    -0.327 OA
ATOM     15  C5  SGN d 503     -16.748  46.475 175.799  0.00  0.00     0.179 C 
BRANCH  11  16
ATOM     16  N   SGN d 503     -19.127  49.357 173.938  0.00  0.00    -0.162 NA
BRANCH  16  17
ATOM     17  S1  SGN d 503     -20.672  49.849 174.071  0.00  0.00     0.227 S 
ATOM     18  O1S SGN d 503     -21.145  49.355 175.350  0.00  0.00    -0.577 OA
ATOM     19  O2S SGN d 503     -20.694  51.310 174.005  0.00  0.00    -0.577 OA
ATOM     20  O3S SGN d 503     -21.323  49.204 172.954  0.00  0.00    -0.577 OA
ENDBRANCH  16  17
ENDBRANCH  11  16
BRANCH  13  21
ATOM     21  O4  IDS d 502     -17.391  47.228 173.169  0.00  0.00    -0.326 OA
BRANCH  21  22
ATOM     22  C4  IDS d 502     -17.808  46.821 171.891  0.00  0.00     0.189 C 
ATOM     23  C3  IDS d 502     -17.876  48.044 170.957  0.00  0.00     0.216 C 
ATOM     24  O3  IDS d 502     -18.486  47.658 169.740  0.00  0.00    -0.218 OA
ATOM     25  C2  IDS d 502     -16.474  48.570 170.639  0.00  0.00     0.229 C 
ATOM     26  C1  IDS d 502     -15.527  47.450 170.219  0.00  0.00     0.301 C 
ATOM     27  O1  IDS d 502     -15.884  47.046 168.924  0.00  0.00    -0.187 OA
ATOM     28  O5  IDS d 502     -15.549  46.390 171.142  0.00  0.00    -0.316 OA
ATOM     29  C5  IDS d 502     -16.819  45.799 171.336  0.00  0.00     0.234 C 
BRANCH  25  30
ATOM     30  O2  IDS d 502     -15.970  49.149 171.813  0.00  0.00    -0.232 OA
BRANCH  30  31
ATOM     31  S   IDS d 502     -15.534  50.634 172.039  0.00  0.00     0.252 S 
ATOM     32  O3S IDS d 502     -15.189  51.118 170.727  0.00  0.00    -0.572 OA
ATOM     33  O2S IDS d 502     -14.416  50.582 172.953  0.00  0.00    -0.572 OA
ATOM     34  O1S IDS d 502     -16.661  51.330 172.593  0.00  0.00    -0.572 OA
ENDBRANCH  30  31
ENDBRANCH  25  30
BRANCH  29  35
ATOM     35  C6  IDS d 502     -16.700  44.529 172.167  0.00  0.00     0.216 C 
ATOM     36  O61 IDS d 502     -17.544  43.668 172.120  0.00  0.00    -0.646 OA
ATOM     37  O62 IDS d 502     -15.746  44.347 172.898  0.00  0.00    -0.646 OA
ENDBRANCH  29  35
ENDBRANCH  21  22
ENDBRANCH  13  21
BRANCH  15  38
ATOM     38  C6  SGN d 503     -16.391  45.281 176.642  0.00  0.00     0.198 C 
BRANCH  38  39
ATOM     39  O6  SGN d 503     -17.594  44.733 177.134  0.00  0.00    -0.235 OA
BRANCH  39  40
ATOM     40  S2  SGN d 503     -17.843  43.234 177.445  0.00  0.00     0.252 S 
ATOM     41  O4S SGN d 503     -16.594  42.630 177.766  0.00  0.00    -0.572 OA
ATOM     42  O5S SGN d 503     -18.780  43.178 178.564  0.00  0.00    -0.572 OA
ATOM     43  O6S SGN d 503     -18.333  42.715 176.228  0.00  0.00    -0.572 OA
ENDBRANCH  39  40
ENDBRANCH  38  39
ENDBRANCH  15  38
ENDBRANCH   8   9
ENDBRANCH   5   8
BRANCH   1  44
ATOM     44  O2  IDS d 504     -13.486  50.754 176.227  0.00  0.00    -0.233 OA
BRANCH  44  45
ATOM     45  S   IDS d 504     -13.991  52.205 176.130  0.00  0.00     0.252 S 
ATOM     46  O3S IDS d 504     -13.911  52.676 177.462  0.00  0.00    -0.572 OA
ATOM     47  O2S IDS d 504     -15.315  52.167 175.581  0.00  0.00    -0.572 OA
ATOM     48  O1S IDS d 504     -13.090  52.885 175.273  0.00  0.00    -0.572 OA
ENDBRANCH  44  45
ENDBRANCH   1  44
BRANCH   4  49
ATOM     49  C6  IDS d 504     -12.779  45.990 175.189  0.00  0.00     0.216 C 
ATOM     50  O62 IDS d 504     -11.994  45.131 175.596  0.00  0.00    -0.646 OA
ATOM     51  O61 IDS d 504     -13.140  45.930 174.020  0.00  0.00    -0.646 OA
ENDBRANCH   4  49
BRANCH   7  52
ATOM     52  O4  IDS d 504     -11.461  48.680 175.768  0.00  0.00    -0.326 OA
BRANCH  52  53
ATOM     53  C1  SGN d 505     -10.071  48.515 175.829  0.00  0.00     0.263 C 
ATOM     54  C2  SGN d 505      -9.341  49.708 175.243  0.00  0.00     0.207 C 
ATOM     55  C3  SGN d 505      -9.598  49.814 173.727  0.00  0.00     0.210 C 
ATOM     56  C4  SGN d 505      -9.129  48.459 173.125  0.00  0.00     0.180 C 
ATOM     57  O3  SGN d 505      -8.819  50.886 173.212  0.00  0.00    -0.218 OA
ATOM     58  C5  SGN d 505      -9.947  47.394 173.779  0.00  0.00     0.179 C 
ATOM     59  O5  SGN d 505      -9.687  47.354 175.148  0.00  0.00    -0.327 OA
BRANCH  54  60
ATOM     60  N   SGN d 505      -9.673  50.919 176.029  0.00  0.00    -0.162 NA
BRANCH  60  61
ATOM     61  S1  SGN d 505      -8.413  51.949 176.431  0.00  0.00     0.227 S 
ATOM     62  O3S SGN d 505      -8.673  52.430 177.741  0.00  0.00    -0.577 OA
ATOM     63  O1S SGN d 505      -7.182  51.192 176.340  0.00  0.00    -0.577 OA
ATOM     64  O2S SGN d 505      -8.479  53.014 175.457  0.00  0.00    -0.577 OA
ENDBRANCH  60  61
ENDBRANCH  54  60
BRANCH  56  65
ATOM     65  O4  SGN d 505      -9.336  48.305 171.736  0.00  0.00    -0.326 OA
BRANCH  65  66
ATOM     66  C1  IDS d 506      -8.326  48.418 170.793  0.00  0.00     0.269 C 
ATOM     67  C2  IDS d 506      -8.956  48.692 169.420  0.00  0.00     0.226 C 
ATOM     68  C3  IDS d 506      -7.964  48.504 168.239  0.00  0.00     0.219 C 
ATOM     69  O3  IDS d 506      -7.205  49.701 168.090  0.00  0.00    -0.218 OA
ATOM     70  C4  IDS d 506      -6.987  47.324 168.430  0.00  0.00     0.223 C 
ATOM     71  O4  IDS d 506      -7.672  46.150 168.061  0.00  0.00    -0.217 OA
ATOM     72  C5  IDS d 506      -6.539  47.223 169.892  0.00  0.00     0.237 C 
ATOM     73  O5  IDS d 506      -7.646  47.190 170.730  0.00  0.00    -0.318 OA
BRANCH  67  74
ATOM     74  O2  IDS d 506     -10.035  47.806 169.194  0.00  0.00    -0.233 OA
BRANCH  74  75
ATOM     75  S   IDS d 506     -11.506  48.151 168.705  0.00  0.00     0.252 S 
ATOM     76  O1S IDS d 506     -12.326  47.099 169.221  0.00  0.00    -0.572 OA
ATOM     77  O2S IDS d 506     -11.878  49.418 169.268  0.00  0.00    -0.572 OA
ATOM     78  O3S IDS d 506     -11.440  48.166 167.259  0.00  0.00    -0.572 OA
ENDBRANCH  74  75
ENDBRANCH  67  74
BRANCH  72  79
ATOM     79  C6  IDS d 506      -5.610  46.075 170.239  0.00  0.00     0.217 C 
ATOM     80  O61 IDS d 506      -5.813  45.405 171.242  0.00  0.00    -0.646 OA
ATOM     81  O62 IDS d 506      -4.641  45.796 169.553  0.00  0.00    -0.646 OA
ENDBRANCH  72  79
ENDBRANCH  65  66
ENDBRANCH  56  65
BRANCH  58  82
ATOM     82  C6  SGN d 505      -9.647  46.027 173.255  0.00  0.00     0.198 C 
BRANCH  82  83
ATOM     83  O6  SGN d 505     -10.615  45.786 172.292  0.00  0.00    -0.235 OA
BRANCH  83  84
ATOM     84  S2  SGN d 505     -10.777  44.534 171.442  0.00  0.00     0.252 S 
ATOM     85  O6S SGN d 505     -10.254  43.421 172.222  0.00  0.00    -0.572 OA
ATOM     86  O4S SGN d 505     -12.199  44.432 171.206  0.00  0.00    -0.572 OA
ATOM     87  O5S SGN d 505      -9.993  44.796 170.260  0.00  0.00    -0.572 OA
ENDBRANCH  83  84
ENDBRANCH  82  83
ENDBRANCH  58  82
ENDBRANCH  52  53
ENDBRANCH   7  52
TORSDOF 27

ENDMDL
MODEL 3
REMARK VINA RESULT:       3.4      3.023      5.279
REMARK  27 active torsions:
REMARK  status: ('A' for Active; 'I' for Inactive)
REMARK    1  A    between atoms: C2_1  and  O2_78 
REMARK    2  A    between atoms: C1_3  and  O4_50 
REMARK    3  A    between atoms: O4_5  and  C4_58 
REMARK    4  A    between atoms: O4_5  and  C1_27 
REMARK    5  A    between atoms: C2_6  and  N_39 
REMARK    6  A    between atoms: S1_9  and  N_39 
REMARK    7  A    between atoms: C6_10  and  C5_52 
REMARK    8  A    between atoms: C2_12  and  N_73 
REMARK    9  A    between atoms: C2_19  and  O2_24 
REMARK   10  A    between atoms: C2_21  and  O2_44 
REMARK   11  A    between atoms: S2_23  and  O6_65 
REMARK   12  A    between atoms: O2_24  and  S_54 
REMARK   13  A    between atoms: C1_28  and  O4_60 
REMARK   14  A    between atoms: C5_29  and  C6_38 
REMARK   15  A    between atoms: C5_30  and  C6_33 
REMARK   16  A    between atoms: S1_34  and  N_73 
REMARK   17  A    between atoms: C5_41  and  C6_46 
REMARK   18  A    between atoms: S_43  and  O2_44 
REMARK   19  A    between atoms: C6_46  and  O6_72 
REMARK   20  A    between atoms: O4_50  and  C4_71 
REMARK   21  A    between atoms: C1_56  and  O4_64 
REMARK   22  A    between atoms: O4_60  and  C4_83 
REMARK   23  A    between atoms: C4_61  and  O4_64 
REMARK   24  A    between atoms: S2_63  and  O6_72 
REMARK   25  A    between atoms: O6_65  and  C6_67 
REMARK   26  A    between atoms: C6_67  and  C5_75 
REMARK   27  A    between atoms: S_76  and  O2_78 
ROOT
ATOM      1  C2  IDS d 504     -18.921  52.519 175.092  0.00  0.00     0.226 C 
ATOM      2  O3  IDS d 504     -19.249  51.983 177.463  0.00  0.00    -0.218 OA
ATOM      3  O5  IDS d 504     -17.944  50.334 174.634  0.00  0.00    -0.318 OA
ATOM      4  C5  IDS d 504     -17.546  50.146 175.973  0.00  0.00     0.234 C 
ATOM      5  C1  IDS d 504     -19.111  51.148 174.476  0.00  0.00     0.269 C 
ATOM      6  C3  IDS d 504     -18.280  52.448 176.532  0.00  0.00     0.216 C 
ATOM      7  C4  IDS d 504     -17.111  51.477 176.582  0.00  0.00     0.189 C 
ENDROOT
BRANCH   5   8
ATOM      8  O4  SGN d 503     -20.251  50.566 175.041  0.00  0.00    -0.326 OA
BRANCH   8   9
ATOM      9  C4  SGN d 503     -20.827  49.572 174.258  0.00  0.00     0.180 C 
ATOM     10  C3  SGN d 503     -20.370  49.766 172.815  0.00  0.00     0.210 C 
ATOM     11  C2  SGN d 503     -20.817  48.563 172.006  0.00  0.00     0.207 C 
ATOM     12  O3  SGN d 503     -20.983  50.939 172.313  0.00  0.00    -0.218 OA
ATOM     13  C1  SGN d 503     -20.352  47.246 172.645  0.00  0.00     0.263 C 
ATOM     14  O5  SGN d 503     -20.829  47.171 173.966  0.00  0.00    -0.327 OA
ATOM     15  C5  SGN d 503     -20.364  48.201 174.781  0.00  0.00     0.179 C 
BRANCH  11  16
ATOM     16  N   SGN d 503     -20.359  48.649 170.630  0.00  0.00    -0.162 NA
BRANCH  16  17
ATOM     17  S1  SGN d 503     -21.489  48.781 169.467  0.00  0.00     0.227 S 
ATOM     18  O1S SGN d 503     -21.800  50.194 169.363  0.00  0.00    -0.577 OA
ATOM     19  O2S SGN d 503     -20.930  48.249 168.225  0.00  0.00    -0.577 OA
ATOM     20  O3S SGN d 503     -22.593  48.008 169.989  0.00  0.00    -0.577 OA
ENDBRANCH  16  17
ENDBRANCH  11  16
BRANCH  13  21
ATOM     21  O4  IDS d 502     -18.956  47.132 172.597  0.00  0.00    -0.326 OA
BRANCH  21  22
ATOM     22  C4  IDS d 502     -18.482  45.944 172.016  0.00  0.00     0.189 C 
ATOM     23  C3  IDS d 502     -17.676  46.276 170.746  0.00  0.00     0.216 C 
ATOM     24  O3  IDS d 502     -17.378  45.073 170.064  0.00  0.00    -0.218 OA
ATOM     25  C2  IDS d 502     -16.353  46.961 171.100  0.00  0.00     0.229 C 
ATOM     26  C1  IDS d 502     -15.604  46.217 172.202  0.00  0.00     0.301 C 
ATOM     27  O1  IDS d 502     -15.076  45.042 171.647  0.00  0.00    -0.187 OA
ATOM     28  O5  IDS d 502     -16.437  45.967 173.306  0.00  0.00    -0.316 OA
ATOM     29  C5  IDS d 502     -17.594  45.208 173.017  0.00  0.00     0.234 C 
BRANCH  25  30
ATOM     30  O2  IDS d 502     -16.662  48.244 171.574  0.00  0.00    -0.232 OA
BRANCH  30  31
ATOM     31  S   IDS d 502     -15.890  49.577 171.301  0.00  0.00     0.252 S 
ATOM     32  O3S IDS d 502     -16.843  50.619 171.586  0.00  0.00    -0.572 OA
ATOM     33  O2S IDS d 502     -15.484  49.522 169.916  0.00  0.00    -0.572 OA
ATOM     34  O1S IDS d 502     -14.768  49.611 172.198  0.00  0.00    -0.572 OA
ENDBRANCH  30  31
ENDBRANCH  25  30
BRANCH  29  35
ATOM     35  C6  IDS d 502     -18.304  44.799 174.299  0.00  0.00     0.216 C 
ATOM     36  O61 IDS d 502     -19.320  44.147 174.273  0.00  0.00    -0.646 OA
ATOM     37  O62 IDS d 502     -17.864  45.115 175.387  0.00  0.00    -0.646 OA
ENDBRANCH  29  35
ENDBRANCH  21  22
ENDBRANCH  13  21
BRANCH  15  38
ATOM     38  C6  SGN d 503     -20.871  47.855 176.155  0.00  0.00     0.198 C 
BRANCH  38  39
ATOM     39  O6  SGN d 503     -20.446  46.542 176.447  0.00  0.00    -0.235 OA
BRANCH  39  40
ATOM     40  S2  SGN d 503     -21.301  45.450 177.144  0.00  0.00     0.252 S 
ATOM     41  O4S SGN d 503     -20.421  44.551 177.810  0.00  0.00    -0.572 OA
ATOM     42  O5S SGN d 503     -22.191  46.135 178.077  0.00  0.00    -0.572 OA
ATOM     43  O6S SGN d 503     -21.946  44.795 176.074  0.00  0.00    -0.572 OA
ENDBRANCH  39  40
ENDBRANCH  38  39
ENDBRANCH  15  38
ENDBRANCH   8   9
ENDBRANCH   5   8
BRANCH   1  44
ATOM     44  O2  IDS d 504     -18.100  53.293 174.219  0.00  0.00    -0.233 OA
BRANCH  44  45
ATOM     45  S   IDS d 504     -18.578  54.190 173.063  0.00  0.00     0.252 S 
ATOM     46  O3S IDS d 504     -17.878  55.402 173.270  0.00  0.00    -0.572 OA
ATOM     47  O2S IDS d 504     -20.005  54.295 173.156  0.00  0.00    -0.572 OA
ATOM     48  O1S IDS d 504     -18.179  53.546 171.865  0.00  0.00    -0.572 OA
ENDBRANCH  44  45
ENDBRANCH   1  44
BRANCH   4  49
ATOM     49  C6  IDS d 504     -16.510  49.014 176.071  0.00  0.00     0.216 C 
ATOM     50  O62 IDS d 504     -16.175  48.550 177.163  0.00  0.00    -0.646 OA
ATOM     51  O61 IDS d 504     -15.979  48.558 175.067  0.00  0.00    -0.646 OA
ENDBRANCH   4  49
BRANCH   7  52
ATOM     52  O4  IDS d 504     -16.021  52.017 175.848  0.00  0.00    -0.326 OA
BRANCH  52  53
ATOM     53  C1  SGN d 505     -15.064  52.660 176.646  0.00  0.00     0.263 C 
ATOM     54  C2  SGN d 505     -14.318  53.728 175.869  0.00  0.00     0.207 C 
ATOM     55  C3  SGN d 505     -13.457  53.095 174.759  0.00  0.00     0.210 C 
ATOM     56  C4  SGN d 505     -12.508  52.095 175.482  0.00  0.00     0.180 C 
ATOM     57  O3  SGN d 505     -12.708  54.124 174.127  0.00  0.00    -0.218 OA
ATOM     58  C5  SGN d 505     -13.383  51.102 176.176  0.00  0.00     0.179 C 
ATOM     59  O5  SGN d 505     -14.150  51.731 177.156  0.00  0.00    -0.327 OA
BRANCH  54  60
ATOM     60  N   SGN d 505     -15.277  54.762 175.415  0.00  0.00    -0.162 NA
BRANCH  60  61
ATOM     61  S1  SGN d 505     -15.192  56.269 176.145  0.00  0.00     0.227 S 
ATOM     62  O3S SGN d 505     -16.245  57.051 175.602  0.00  0.00    -0.577 OA
ATOM     63  O1S SGN d 505     -15.314  56.070 177.574  0.00  0.00    -0.577 OA
ATOM     64  O2S SGN d 505     -13.900  56.792 175.769  0.00  0.00    -0.577 OA
ENDBRANCH  60  61
ENDBRANCH  54  60
BRANCH  56  65
ATOM     65  O4  SGN d 505     -11.662  51.340 174.640  0.00  0.00    -0.326 OA
BRANCH  65  66
ATOM     66  C1  IDS d 506     -10.313  51.609 174.469  0.00  0.00     0.269 C 
ATOM     67  C2  IDS d 506      -9.719  50.575 173.501  0.00  0.00     0.226 C 
ATOM     68  C3  IDS d 506      -8.165  50.562 173.493  0.00  0.00     0.219 C 
ATOM     69  O3  IDS d 506      -7.709  51.590 172.617  0.00  0.00    -0.218 OA
ATOM     70  C4  IDS d 506      -7.534  50.786 174.884  0.00  0.00     0.223 C 
ATOM     71  O4  IDS d 506      -7.555  49.549 175.556  0.00  0.00    -0.217 OA
ATOM     72  C5  IDS d 506      -8.334  51.822 175.681  0.00  0.00     0.237 C 
ATOM     73  O5  IDS d 506      -9.677  51.467 175.713  0.00  0.00    -0.318 OA
BRANCH  67  74
ATOM     74  O2  IDS d 506     -10.137  49.274 173.864  0.00  0.00    -0.233 OA
BRANCH  74  75
ATOM     75  S   IDS d 506     -10.833  48.174 172.952  0.00  0.00     0.252 S 
ATOM     76  O1S IDS d 506     -10.303  46.925 173.406  0.00  0.00    -0.572 OA
ATOM     77  O2S IDS d 506     -12.250  48.243 173.172  0.00  0.00    -0.572 OA
ATOM     78  O3S IDS d 506     -10.449  48.497 171.595  0.00  0.00    -0.572 OA
ENDBRANCH  74  75
ENDBRANCH  67  74
BRANCH  72  79
ATOM     79  C6  IDS d 506      -7.855  52.109 177.092  0.00  0.00     0.217 C 
ATOM     80  O61 IDS d 506      -8.394  52.985 177.755  0.00  0.00    -0.646 OA
ATOM     81  O62 IDS d 506      -6.926  51.501 177.596  0.00  0.00    -0.646 OA
ENDBRANCH  72  79
ENDBRANCH  65  66
ENDBRANCH  56  65
BRANCH  58  82
ATOM     82  C6  SGN d 505     -12.606  50.033 176.875  0.00  0.00     0.198 C 
BRANCH  82  83
ATOM     83  O6  SGN d 505     -12.950  48.854 176.231  0.00  0.00    -0.235 OA
BRANCH  83  84
ATOM     84  S2  SGN d 505     -12.667  47.434 176.696  0.00  0.00     0.252 S 
ATOM     85  O6S SGN d 505     -13.091  47.352 178.088  0.00  0.00    -0.572 OA
ATOM     86  O4S SGN d 505     -13.457  46.596 175.822  0.00  0.00    -0.572 OA
ATOM     87  O5S SGN d 505     -11.241  47.280 176.544  0.00  0.00    -0.572 OA
ENDBRANCH  83  84
ENDBRANCH  82  83
ENDBRANCH  58  82
ENDBRANCH  52  53
ENDBRANCH   7  52
TORSDOF 27

ENDMDL
MODEL 4
REMARK VINA RESULT:       3.4      3.296     10.324
REMARK  27 active torsions:
REMARK  status: ('A' for Active; 'I' for Inactive)
REMARK    1  A    between atoms: C2_1  and  O2_78 
REMARK    2  A    between atoms: C1_3  and  O4_50 
REMARK    3  A    between atoms: O4_5  and  C4_58 
REMARK    4  A    between atoms: O4_5  and  C1_27 
REMARK    5  A    between atoms: C2_6  and  N_39 
REMARK    6  A    between atoms: S1_9  and  N_39 
REMARK    7  A    between atoms: C6_10  and  C5_52 
REMARK    8  A    between atoms: C2_12  and  N_73 
REMARK    9  A    between atoms: C2_19  and  O2_24 
REMARK   10  A    between atoms: C2_21  and  O2_44 
REMARK   11  A    between atoms: S2_23  and  O6_65 
REMARK   12  A    between atoms: O2_24  and  S_54 
REMARK   13  A    between atoms: C1_28  and  O4_60 
REMARK   14  A    between atoms: C5_29  and  C6_38 
REMARK   15  A    between atoms: C5_30  and  C6_33 
REMARK   16  A    between atoms: S1_34  and  N_73 
REMARK   17  A    between atoms: C5_41  and  C6_46 
REMARK   18  A    between atoms: S_43  and  O2_44 
REMARK   19  A    between atoms: C6_46  and  O6_72 
REMARK   20  A    between atoms: O4_50  and  C4_71 
REMARK   21  A    between atoms: C1_56  and  O4_64 
REMARK   22  A    between atoms: O4_60  and  C4_83 
REMARK   23  A    between atoms: C4_61  and  O4_64 
REMARK   24  A    between atoms: S2_63  and  O6_72 
REMARK   25  A    between atoms: O6_65  and  C6_67 
REMARK   26  A    between atoms: C6_67  and  C5_75 
REMARK   27  A    between atoms: S_76  and  O2_78 
ROOT
ATOM      1  C2  IDS d 504     -14.282  50.765 175.535  0.00  0.00     0.226 C 
ATOM      2  O3  IDS d 504     -13.816  52.027 173.484  0.00  0.00    -0.218 OA
ATOM      3  O5  IDS d 504     -15.092  48.839 174.281  0.00  0.00    -0.318 OA
ATOM      4  C5  IDS d 504     -15.421  49.616 173.152  0.00  0.00     0.234 C 
ATOM      5  C1  IDS d 504     -14.003  49.355 175.054  0.00  0.00     0.269 C 
ATOM      6  C3  IDS d 504     -14.857  51.688 174.393  0.00  0.00     0.216 C 
ATOM      7  C4  IDS d 504     -15.940  50.984 173.590  0.00  0.00     0.189 C 
ENDROOT
BRANCH   5   8
ATOM      8  O4  SGN d 503     -12.799  49.362 174.343  0.00  0.00    -0.326 OA
BRANCH   8   9
ATOM      9  C4  SGN d 503     -12.166  48.126 174.288  0.00  0.00     0.180 C 
ATOM     10  C3  SGN d 503     -12.621  47.295 175.485  0.00  0.00     0.210 C 
ATOM     11  C2  SGN d 503     -12.107  45.878 175.307  0.00  0.00     0.207 C 
ATOM     12  O3  SGN d 503     -12.064  47.865 176.654  0.00  0.00    -0.218 OA
ATOM     13  C1  SGN d 503     -12.510  45.297 173.944  0.00  0.00     0.263 C 
ATOM     14  O5  SGN d 503     -12.040  46.136 172.918  0.00  0.00    -0.327 OA
ATOM     15  C5  SGN d 503     -12.563  47.426 172.976  0.00  0.00     0.179 C 
BRANCH  11  16
ATOM     16  N   SGN d 503     -12.557  45.012 176.382  0.00  0.00    -0.162 NA
BRANCH  16  17
ATOM     17  S1  SGN d 503     -11.538  43.848 176.889  0.00  0.00     0.227 S 
ATOM     18  O1S SGN d 503     -11.627  43.836 178.337  0.00  0.00    -0.577 OA
ATOM     19  O2S SGN d 503     -11.966  42.579 176.302  0.00  0.00    -0.577 OA
ATOM     20  O3S SGN d 503     -10.251  44.307 176.418  0.00  0.00    -0.577 OA
ENDBRANCH  16  17
ENDBRANCH  11  16
BRANCH  13  21
ATOM     21  O4  IDS d 502     -13.898  45.119 173.866  0.00  0.00    -0.326 OA
BRANCH  21  22
ATOM     22  C4  IDS d 502     -14.309  43.797 173.629  0.00  0.00     0.189 C 
ATOM     23  C3  IDS d 502     -15.040  43.253 174.871  0.00  0.00     0.216 C 
ATOM     24  O3  IDS d 502     -15.270  41.868 174.699  0.00  0.00    -0.218 OA
ATOM     25  C2  IDS d 502     -16.397  43.940 175.053  0.00  0.00     0.229 C 
ATOM     26  C1  IDS d 502     -17.198  43.970 173.755  0.00  0.00     0.301 C 
ATOM     27  O1  IDS d 502     -17.666  42.671 173.507  0.00  0.00    -0.187 OA
ATOM     28  O5  IDS d 502     -16.432  44.481 172.693  0.00  0.00    -0.316 OA
ATOM     29  C5  IDS d 502     -15.243  43.765 172.421  0.00  0.00     0.234 C 
BRANCH  25  30
ATOM     30  O2  IDS d 502     -16.145  45.265 175.439  0.00  0.00    -0.232 OA
BRANCH  30  31
ATOM     31  S   IDS d 502     -16.888  46.101 176.532  0.00  0.00     0.252 S 
ATOM     32  O3S IDS d 502     -17.565  47.141 175.801  0.00  0.00    -0.572 OA
ATOM     33  O2S IDS d 502     -15.860  46.589 177.422  0.00  0.00    -0.572 OA
ATOM     34  O1S IDS d 502     -17.808  45.218 177.193  0.00  0.00    -0.572 OA
ENDBRANCH  30  31
ENDBRANCH  25  30
BRANCH  29  35
ATOM     35  C6  IDS d 502     -14.607  44.249 171.126  0.00  0.00     0.216 C 
ATOM     36  O61 IDS d 502     -13.709  43.636 170.602  0.00  0.00    -0.646 OA
ATOM     37  O62 IDS d 502     -14.991  45.266 170.582  0.00  0.00    -0.646 OA
ENDBRANCH  29  35
ENDBRANCH  21  22
ENDBRANCH  13  21
BRANCH  15  38
ATOM     38  C6  SGN d 503     -12.050  48.100 171.732  0.00  0.00     0.198 C 
BRANCH  38  39
ATOM     39  O6  SGN d 503     -13.163  48.379 170.910  0.00  0.00    -0.235 OA
BRANCH  39  40
ATOM     40  S2  SGN d 503     -13.174  48.333 169.359  0.00  0.00     0.252 S 
ATOM     41  O4S SGN d 503     -12.795  47.024 168.948  0.00  0.00    -0.572 OA
ATOM     42  O5S SGN d 503     -14.528  48.670 168.931  0.00  0.00    -0.572 OA
ATOM     43  O6S SGN d 503     -12.180  49.264 168.989  0.00  0.00    -0.572 OA
ENDBRANCH  39  40
ENDBRANCH  38  39
ENDBRANCH  15  38
ENDBRANCH   8   9
ENDBRANCH   5   8
BRANCH   1  44
ATOM     44  O2  IDS d 504     -15.197  50.693 176.626  0.00  0.00    -0.233 OA
BRANCH  44  45
ATOM     45  S   IDS d 504     -14.936  51.142 178.076  0.00  0.00     0.252 S 
ATOM     46  O3S IDS d 504     -14.544  49.949 178.729  0.00  0.00    -0.572 OA
ATOM     47  O2S IDS d 504     -16.145  51.732 178.572  0.00  0.00    -0.572 OA
ATOM     48  O1S IDS d 504     -13.880  52.085 178.019  0.00  0.00    -0.572 OA
ENDBRANCH  44  45
ENDBRANCH   1  44
BRANCH   4  49
ATOM     49  C6  IDS d 504     -16.355  48.833 172.215  0.00  0.00     0.216 C 
ATOM     50  O62 IDS d 504     -16.643  47.655 172.440  0.00  0.00    -0.646 OA
ATOM     51  O61 IDS d 504     -16.823  49.355 171.211  0.00  0.00    -0.646 OA
ENDBRANCH   4  49
BRANCH   7  52
ATOM     52  O4  IDS d 504     -17.098  50.831 174.397  0.00  0.00    -0.326 OA
BRANCH  52  53
ATOM     53  C1  SGN d 505     -18.149  51.691 174.047  0.00  0.00     0.263 C 
ATOM     54  C2  SGN d 505     -18.949  52.115 175.263  0.00  0.00     0.207 C 
ATOM     55  C3  SGN d 505     -19.692  50.912 175.876  0.00  0.00     0.210 C 
ATOM     56  C4  SGN d 505     -20.580  50.339 174.734  0.00  0.00     0.180 C 
ATOM     57  O3  SGN d 505     -20.499  51.378 176.950  0.00  0.00    -0.218 OA
ATOM     58  C5  SGN d 505     -19.654  49.949 173.627  0.00  0.00     0.179 C 
ATOM     59  O5  SGN d 505     -18.999  51.072 173.123  0.00  0.00    -0.327 OA
BRANCH  54  60
ATOM     60  N   SGN d 505     -18.068  52.857 176.194  0.00  0.00    -0.162 NA
BRANCH  60  61
ATOM     61  S1  SGN d 505     -17.970  54.520 176.007  0.00  0.00     0.227 S 
ATOM     62  O3S SGN d 505     -17.708  54.767 174.634  0.00  0.00    -0.577 OA
ATOM     63  O1S SGN d 505     -19.225  55.086 176.454  0.00  0.00    -0.577 OA
ATOM     64  O2S SGN d 505     -16.858  54.922 176.836  0.00  0.00    -0.577 OA
ENDBRANCH  60  61
ENDBRANCH  54  60
BRANCH  56  65
ATOM     65  O4  SGN d 505     -21.309  49.174 175.055  0.00  0.00    -0.326 OA
BRANCH  65  66
ATOM     66  C1  IDS d 506     -22.560  49.192 175.654  0.00  0.00     0.269 C 
ATOM     67  C2  IDS d 506     -22.972  47.751 175.987  0.00  0.00     0.226 C 
ATOM     68  C3  IDS d 506     -24.477  47.609 176.347  0.00  0.00     0.219 C 
ATOM     69  O3  IDS d 506     -24.646  47.938 177.724  0.00  0.00    -0.218 OA
ATOM     70  C4  IDS d 506     -25.404  48.515 175.509  0.00  0.00     0.223 C 
ATOM     71  O4  IDS d 506     -25.622  47.865 174.279  0.00  0.00    -0.217 OA
ATOM     72  C5  IDS d 506     -24.752  49.880 175.264  0.00  0.00     0.237 C 
ATOM     73  O5  IDS d 506     -23.480  49.713 174.730  0.00  0.00    -0.318 OA
BRANCH  67  74
ATOM     74  O2  IDS d 506     -22.736  46.908 174.877  0.00  0.00    -0.233 OA
BRANCH  74  75
ATOM     75  S   IDS d 506     -21.877  45.572 174.820  0.00  0.00     0.252 S 
ATOM     76  O1S IDS d 506     -22.153  45.007 173.535  0.00  0.00    -0.572 OA
ATOM     77  O2S IDS d 506     -20.491  45.927 174.941  0.00  0.00    -0.572 OA
ATOM     78  O3S IDS d 506     -22.356  44.757 175.916  0.00  0.00    -0.572 OA
ENDBRANCH  74  75
ENDBRANCH  67  74
BRANCH  72  79
ATOM     79  C6  IDS d 506     -25.532  50.862 174.409  0.00  0.00     0.217 C 
ATOM     80  O61 IDS d 506     -25.097  51.203 173.318  0.00  0.00    -0.646 OA
ATOM     81  O62 IDS d 506     -26.589  51.344 174.780  0.00  0.00    -0.646 OA
ENDBRANCH  72  79
ENDBRANCH  65  66
ENDBRANCH  56  65
BRANCH  58  82
ATOM     82  C6  SGN d 505     -20.364  49.324 172.471  0.00  0.00     0.198 C 
BRANCH  82  83
ATOM     83  O6  SGN d 505     -19.852  48.039 172.381  0.00  0.00    -0.235 OA
BRANCH  83  84
ATOM     84  S2  SGN d 505     -20.034  47.051 171.238  0.00  0.00     0.252 S 
ATOM     85  O6S SGN d 505     -21.467  46.936 171.002  0.00  0.00    -0.572 OA
ATOM     86  O4S SGN d 505     -19.331  47.645 170.124  0.00  0.00    -0.572 OA
ATOM     87  O5S SGN d 505     -19.455  45.824 171.724  0.00  0.00    -0.572 OA
ENDBRANCH  83  84
ENDBRANCH  82  83
ENDBRANCH  58  82
ENDBRANCH  52  53
ENDBRANCH   7  52
TORSDOF 27

ENDMDL
MODEL 5
REMARK VINA RESULT:       3.5      3.045     10.436
REMARK  27 active torsions:
REMARK  status: ('A' for Active; 'I' for Inactive)
REMARK    1  A    between atoms: C2_1  and  O2_78 
REMARK    2  A    between atoms: C1_3  and  O4_50 
REMARK    3  A    between atoms: O4_5  and  C4_58 
REMARK    4  A    between atoms: O4_5  and  C1_27 
REMARK    5  A    between atoms: C2_6  and  N_39 
REMARK    6  A    between atoms: S1_9  and  N_39 
REMARK    7  A    between atoms: C6_10  and  C5_52 
REMARK    8  A    between atoms: C2_12  and  N_73 
REMARK    9  A    between atoms: C2_19  and  O2_24 
REMARK   10  A    between atoms: C2_21  and  O2_44 
REMARK   11  A    between atoms: S2_23  and  O6_65 
REMARK   12  A    between atoms: O2_24  and  S_54 
REMARK   13  A    between atoms: C1_28  and  O4_60 
REMARK   14  A    between atoms: C5_29  and  C6_38 
REMARK   15  A    between atoms: C5_30  and  C6_33 
REMARK   16  A    between atoms: S1_34  and  N_73 
REMARK   17  A    between atoms: C5_41  and  C6_46 
REMARK   18  A    between atoms: S_43  and  O2_44 
REMARK   19  A    between atoms: C6_46  and  O6_72 
REMARK   20  A    between atoms: O4_50  and  C4_71 
REMARK   21  A    between atoms: C1_56  and  O4_64 
REMARK   22  A    between atoms: O4_60  and  C4_83 
REMARK   23  A    between atoms: C4_61  and  O4_64 
REMARK   24  A    between atoms: S2_63  and  O6_72 
REMARK   25  A    between atoms: O6_65  and  C6_67 
REMARK   26  A    between atoms: C6_67  and  C5_75 
REMARK   27  A    between atoms: S_76  and  O2_78 
ROOT
ATOM      1  C2  IDS d 504     -13.772  45.875 171.721  0.00  0.00     0.226 C 
ATOM      2  O3  IDS d 504     -13.306  43.675 172.698  0.00  0.00    -0.218 OA
ATOM      3  O5  IDS d 504     -14.411  46.806 173.880  0.00  0.00    -0.318 OA
ATOM      4  C5  IDS d 504     -14.742  45.544 174.413  0.00  0.00     0.234 C 
ATOM      5  C1  IDS d 504     -13.387  46.773 172.880  0.00  0.00     0.269 C 
ATOM      6  C3  IDS d 504     -14.359  44.492 172.200  0.00  0.00     0.216 C 
ATOM      7  C4  IDS d 504     -15.363  44.665 173.329  0.00  0.00     0.189 C 
ENDROOT
BRANCH   5   8
ATOM      8  O4  SGN d 503     -12.159  46.336 173.385  0.00  0.00    -0.326 OA
BRANCH   8   9
ATOM      9  C4  SGN d 503     -11.477  47.296 174.125  0.00  0.00     0.180 C 
ATOM     10  C3  SGN d 503     -11.866  48.677 173.602  0.00  0.00     0.210 C 
ATOM     11  C2  SGN d 503     -11.299  49.722 174.545  0.00  0.00     0.207 C 
ATOM     12  O3  SGN d 503     -11.303  48.834 172.314  0.00  0.00    -0.218 OA
ATOM     13  C1  SGN d 503     -11.713  49.457 176.000  0.00  0.00     0.263 C 
ATOM     14  O5  SGN d 503     -11.306  48.165 176.376  0.00  0.00    -0.327 OA
ATOM     15  C5  SGN d 503     -11.880  47.157 175.604  0.00  0.00     0.179 C 
BRANCH  11  16
ATOM     16  N   SGN d 503     -11.685  51.063 174.143  0.00  0.00    -0.162 NA
BRANCH  16  17
ATOM     17  S1  SGN d 503     -10.522  52.201 174.101  0.00  0.00     0.227 S 
ATOM     18  O1S SGN d 503      -9.976  52.272 175.443  0.00  0.00    -0.577 OA
ATOM     19  O2S SGN d 503      -9.518  51.791 173.121  0.00  0.00    -0.577 OA
ATOM     20  O3S SGN d 503     -11.244  53.399 173.733  0.00  0.00    -0.577 OA
ENDBRANCH  16  17
ENDBRANCH  11  16
BRANCH  13  21
ATOM     21  O4  IDS d 502     -13.094  49.628 176.166  0.00  0.00    -0.326 OA
BRANCH  21  22
ATOM     22  C4  IDS d 502     -13.457  50.544 177.167  0.00  0.00     0.189 C 
ATOM     23  C3  IDS d 502     -13.958  51.847 176.517  0.00  0.00     0.216 C 
ATOM     24  O3  IDS d 502     -14.128  52.827 177.523  0.00  0.00    -0.218 OA
ATOM     25  C2  IDS d 502     -15.311  51.633 175.830  0.00  0.00     0.229 C 
ATOM     26  C1  IDS d 502     -16.299  50.904 176.735  0.00  0.00     0.301 C 
ATOM     27  O1  IDS d 502     -16.721  51.804 177.726  0.00  0.00    -0.187 OA
ATOM     28  O5  IDS d 502     -15.734  49.735 177.273  0.00  0.00    -0.316 OA
ATOM     29  C5  IDS d 502     -14.559  49.939 178.033  0.00  0.00     0.234 C 
BRANCH  25  30
ATOM     30  O2  IDS d 502     -15.082  50.832 174.702  0.00  0.00    -0.232 OA
BRANCH  30  31
ATOM     31  S   IDS d 502     -15.214  51.237 173.197  0.00  0.00     0.252 S 
ATOM     32  O3S IDS d 502     -16.626  51.437 172.993  0.00  0.00    -0.572 OA
ATOM     33  O2S IDS d 502     -14.667  50.134 172.442  0.00  0.00    -0.572 OA
ATOM     34  O1S IDS d 502     -14.465  52.449 173.015  0.00  0.00    -0.572 OA
ENDBRANCH  30  31
ENDBRANCH  25  30
BRANCH  29  35
ATOM     35  C6  IDS d 502     -14.156  48.661 178.755  0.00  0.00     0.216 C 
ATOM     36  O61 IDS d 502     -14.969  47.811 179.026  0.00  0.00    -0.646 OA
ATOM     37  O62 IDS d 502     -13.000  48.460 179.074  0.00  0.00    -0.646 OA
ENDBRANCH  29  35
ENDBRANCH  21  22
ENDBRANCH  13  21
BRANCH  15  38
ATOM     38  C6  SGN d 503     -11.428  45.877 176.253  0.00  0.00     0.198 C 
BRANCH  38  39
ATOM     39  O6  SGN d 503     -12.517  45.368 176.992  0.00  0.00    -0.235 OA
BRANCH  39  40
ATOM     40  S2  SGN d 503     -12.687  43.895 177.451  0.00  0.00     0.252 S 
ATOM     41  O4S SGN d 503     -13.951  43.770 178.093  0.00  0.00    -0.572 OA
ATOM     42  O5S SGN d 503     -12.596  43.062 176.256  0.00  0.00    -0.572 OA
ATOM     43  O6S SGN d 503     -11.647  43.714 178.388  0.00  0.00    -0.572 OA
ENDBRANCH  39  40
ENDBRANCH  38  39
ENDBRANCH  15  38
ENDBRANCH   8   9
ENDBRANCH   5   8
BRANCH   1  44
ATOM     44  O2  IDS d 504     -14.723  46.567 170.915  0.00  0.00    -0.233 OA
BRANCH  44  45
ATOM     45  S   IDS d 504     -14.487  47.152 169.510  0.00  0.00     0.252 S 
ATOM     46  O3S IDS d 504     -13.868  46.091 168.807  0.00  0.00    -0.572 OA
ATOM     47  O2S IDS d 504     -13.680  48.327 169.660  0.00  0.00    -0.572 OA
ATOM     48  O1S IDS d 504     -15.766  47.460 168.984  0.00  0.00    -0.572 OA
ENDBRANCH  44  45
ENDBRANCH   1  44
BRANCH   4  49
ATOM     49  C6  IDS d 504     -15.589  45.704 175.687  0.00  0.00     0.216 C 
ATOM     50  O62 IDS d 504     -16.057  44.723 176.268  0.00  0.00    -0.646 OA
ATOM     51  O61 IDS d 504     -15.832  46.813 176.146  0.00  0.00    -0.646 OA
ENDBRANCH   4  49
BRANCH   7  52
ATOM     52  O4  IDS d 504     -16.540  45.274 172.820  0.00  0.00    -0.326 OA
BRANCH  52  53
ATOM     53  C1  SGN d 505     -17.695  44.495 172.978  0.00  0.00     0.263 C 
ATOM     54  C2  SGN d 505     -18.682  44.726 171.850  0.00  0.00     0.207 C 
ATOM     55  C3  SGN d 505     -19.239  46.162 171.898  0.00  0.00     0.210 C 
ATOM     56  C4  SGN d 505     -19.880  46.318 173.307  0.00  0.00     0.180 C 
ATOM     57  O3  SGN d 505     -20.225  46.297 170.883  0.00  0.00    -0.218 OA
ATOM     58  C5  SGN d 505     -18.789  46.085 174.301  0.00  0.00     0.179 C 
ATOM     59  O5  SGN d 505     -18.312  44.778 174.202  0.00  0.00    -0.327 OA
BRANCH  54  60
ATOM     60  N   SGN d 505     -18.058  44.331 170.566  0.00  0.00    -0.162 NA
BRANCH  60  61
ATOM     61  S1  SGN d 505     -17.936  42.692 170.237  0.00  0.00     0.227 S 
ATOM     62  O3S SGN d 505     -18.378  42.503 168.901  0.00  0.00    -0.577 OA
ATOM     63  O1S SGN d 505     -16.555  42.307 170.435  0.00  0.00    -0.577 OA
ATOM     64  O2S SGN d 505     -18.827  42.056 171.180  0.00  0.00    -0.577 OA
ENDBRANCH  60  61
ENDBRANCH  54  60
BRANCH  56  65
ATOM     65  O4  SGN d 505     -20.402  47.596 173.601  0.00  0.00    -0.326 OA
BRANCH  65  66
ATOM     66  C1  IDS d 506     -21.755  47.899 173.566  0.00  0.00     0.269 C 
ATOM     67  C2  IDS d 506     -21.947  49.367 173.974  0.00  0.00     0.226 C 
ATOM     68  C3  IDS d 506     -23.423  49.728 174.298  0.00  0.00     0.219 C 
ATOM     69  O3  IDS d 506     -24.097  50.016 173.076  0.00  0.00    -0.218 OA
ATOM     70  C4  IDS d 506     -24.190  48.605 175.029  0.00  0.00     0.223 C 
ATOM     71  O4  IDS d 506     -23.855  48.689 176.394  0.00  0.00    -0.217 OA
ATOM     72  C5  IDS d 506     -23.791  47.230 174.482  0.00  0.00     0.237 C 
ATOM     73  O5  IDS d 506     -22.409  47.089 174.509  0.00  0.00    -0.318 OA
BRANCH  67  74
ATOM     74  O2  IDS d 506     -21.191  49.652 175.135  0.00  0.00    -0.233 OA
BRANCH  74  75
ATOM     75  S   IDS d 506     -20.444  51.001 175.517  0.00  0.00     0.252 S 
ATOM     76  O1S IDS d 506     -21.270  52.044 174.992  0.00  0.00    -0.572 OA
ATOM     77  O2S IDS d 506     -20.363  51.077 176.948  0.00  0.00    -0.572 OA
ATOM     78  O3S IDS d 506     -19.149  50.922 174.875  0.00  0.00    -0.572 OA
ENDBRANCH  74  75
ENDBRANCH  67  74
BRANCH  72  79
ATOM     79  C6  IDS d 506     -24.434  46.025 175.142  0.00  0.00     0.217 C 
ATOM     80  O61 IDS d 506     -25.652  45.952 175.230  0.00  0.00    -0.646 OA
ATOM     81  O62 IDS d 506     -23.772  45.115 175.610  0.00  0.00    -0.646 OA
ENDBRANCH  72  79
ENDBRANCH  65  66
ENDBRANCH  56  65
BRANCH  58  82
ATOM     82  C6  SGN d 505     -19.244  46.258 175.714  0.00  0.00     0.198 C 
BRANCH  82  83
ATOM     83  O6  SGN d 505     -20.163  45.241 175.927  0.00  0.00    -0.235 OA
BRANCH  83  84
ATOM     84  S2  SGN d 505     -20.345  44.415 177.191  0.00  0.00     0.252 S 
ATOM     85  O6S SGN d 505     -19.014  44.035 177.645  0.00  0.00    -0.572 OA
ATOM     86  O4S SGN d 505     -21.019  45.300 178.114  0.00  0.00    -0.572 OA
ATOM     87  O5S SGN d 505     -21.129  43.280 176.771  0.00  0.00    -0.572 OA
ENDBRANCH  83  84
ENDBRANCH  82  83
ENDBRANCH  58  82
ENDBRANCH  52  53
ENDBRANCH   7  52
TORSDOF 27

ENDMDL
MODEL 6
REMARK VINA RESULT:       3.5      5.128      9.392
REMARK  27 active torsions:
REMARK  status: ('A' for Active; 'I' for Inactive)
REMARK    1  A    between atoms: C2_1  and  O2_78 
REMARK    2  A    between atoms: C1_3  and  O4_50 
REMARK    3  A    between atoms: O4_5  and  C4_58 
REMARK    4  A    between atoms: O4_5  and  C1_27 
REMARK    5  A    between atoms: C2_6  and  N_39 
REMARK    6  A    between atoms: S1_9  and  N_39 
REMARK    7  A    between atoms: C6_10  and  C5_52 
REMARK    8  A    between atoms: C2_12  and  N_73 
REMARK    9  A    between atoms: C2_19  and  O2_24 
REMARK   10  A    between atoms: C2_21  and  O2_44 
REMARK   11  A    between atoms: S2_23  and  O6_65 
REMARK   12  A    between atoms: O2_24  and  S_54 
REMARK   13  A    between atoms: C1_28  and  O4_60 
REMARK   14  A    between atoms: C5_29  and  C6_38 
REMARK   15  A    between atoms: C5_30  and  C6_33 
REMARK   16  A    between atoms: S1_34  and  N_73 
REMARK   17  A    between atoms: C5_41  and  C6_46 
REMARK   18  A    between atoms: S_43  and  O2_44 
REMARK   19  A    between atoms: C6_46  and  O6_72 
REMARK   20  A    between atoms: O4_50  and  C4_71 
REMARK   21  A    between atoms: C1_56  and  O4_64 
REMARK   22  A    between atoms: O4_60  and  C4_83 
REMARK   23  A    between atoms: C4_61  and  O4_64 
REMARK   24  A    between atoms: S2_63  and  O6_72 
REMARK   25  A    between atoms: O6_65  and  C6_67 
REMARK   26  A    between atoms: C6_67  and  C5_75 
REMARK   27  A    between atoms: S_76  and  O2_78 
ROOT
ATOM      1  C2  IDS d 504     -16.210  51.593 176.533  0.00  0.00     0.226 C 
ATOM      2  O3  IDS d 504     -14.587  52.704 177.997  0.00  0.00    -0.218 OA
ATOM      3  O5  IDS d 504     -14.640  51.541 174.670  0.00  0.00    -0.318 OA
ATOM      4  C5  IDS d 504     -13.897  52.632 175.166  0.00  0.00     0.234 C 
ATOM      5  C1  IDS d 504     -15.277  50.754 175.682  0.00  0.00     0.269 C 
ATOM      6  C3  IDS d 504     -15.553  52.954 176.984  0.00  0.00     0.216 C 
ATOM      7  C4  IDS d 504     -14.829  53.639 175.835  0.00  0.00     0.189 C 
ENDROOT
BRANCH   5   8
ATOM      8  O4  SGN d 503     -14.359  50.123 176.528  0.00  0.00    -0.326 OA
BRANCH   8   9
ATOM      9  C4  SGN d 503     -14.034  48.827 176.144  0.00  0.00     0.180 C 
ATOM     10  C3  SGN d 503     -15.308  48.125 175.681  0.00  0.00     0.210 C 
ATOM     11  C2  SGN d 503     -14.922  46.795 175.060  0.00  0.00     0.207 C 
ATOM     12  O3  SGN d 503     -16.127  47.907 176.815  0.00  0.00    -0.218 OA
ATOM     13  C1  SGN d 503     -13.862  46.970 173.962  0.00  0.00     0.263 C 
ATOM     14  O5  SGN d 503     -12.736  47.622 174.496  0.00  0.00    -0.327 OA
ATOM     15  C5  SGN d 503     -13.017  48.894 174.991  0.00  0.00     0.179 C 
BRANCH  11  16
ATOM     16  N   SGN d 503     -16.084  46.098 174.537  0.00  0.00    -0.162 NA
BRANCH  16  17
ATOM     17  S1  SGN d 503     -16.459  44.659 175.199  0.00  0.00     0.227 S 
ATOM     18  O1S SGN d 503     -17.510  44.920 176.164  0.00  0.00    -0.577 OA
ATOM     19  O2S SGN d 503     -16.905  43.767 174.130  0.00  0.00    -0.577 OA
ATOM     20  O3S SGN d 503     -15.222  44.249 175.825  0.00  0.00    -0.577 OA
ENDBRANCH  16  17
ENDBRANCH  11  16
BRANCH  13  21
ATOM     21  O4  IDS d 502     -14.386  47.667 172.866  0.00  0.00    -0.326 OA
BRANCH  21  22
ATOM     22  C4  IDS d 502     -14.396  46.947 171.660  0.00  0.00     0.189 C 
ATOM     23  C3  IDS d 502     -15.802  47.004 171.035  0.00  0.00     0.216 C 
ATOM     24  O3  IDS d 502     -15.853  46.115 169.936  0.00  0.00    -0.218 OA
ATOM     25  C2  IDS d 502     -16.117  48.412 170.522  0.00  0.00     0.229 C 
ATOM     26  C1  IDS d 502     -14.979  48.978 169.679  0.00  0.00     0.301 C 
ATOM     27  O1  IDS d 502     -14.983  48.312 168.444  0.00  0.00    -0.187 OA
ATOM     28  O5  IDS d 502     -13.746  48.871 170.347  0.00  0.00    -0.316 OA
ATOM     29  C5  IDS d 502     -13.376  47.552 170.699  0.00  0.00     0.234 C 
BRANCH  25  30
ATOM     30  O2  IDS d 502     -16.280  49.238 171.644  0.00  0.00    -0.232 OA
BRANCH  30  31
ATOM     31  S   IDS d 502     -17.620  49.724 172.289  0.00  0.00     0.252 S 
ATOM     32  O3S IDS d 502     -17.458  51.146 172.444  0.00  0.00    -0.572 OA
ATOM     33  O2S IDS d 502     -17.737  49.011 173.539  0.00  0.00    -0.572 OA
ATOM     34  O1S IDS d 502     -18.677  49.397 171.373  0.00  0.00    -0.572 OA
ENDBRANCH  30  31
ENDBRANCH  25  30
BRANCH  29  35
ATOM     35  C6  IDS d 502     -11.941  47.514 171.205  0.00  0.00     0.216 C 
ATOM     36  O61 IDS d 502     -11.386  46.467 171.437  0.00  0.00    -0.646 OA
ATOM     37  O62 IDS d 502     -11.312  48.539 171.384  0.00  0.00    -0.646 OA
ENDBRANCH  29  35
ENDBRANCH  21  22
ENDBRANCH  13  21
BRANCH  15  38
ATOM     38  C6  SGN d 503     -11.675  49.456 175.376  0.00  0.00     0.198 C 
BRANCH  38  39
ATOM     39  O6  SGN d 503     -11.152  50.119 174.246  0.00  0.00    -0.235 OA
BRANCH  39  40
ATOM     40  S2  SGN d 503      -9.659  50.478 174.021  0.00  0.00     0.252 S 
ATOM     41  O4S SGN d 503      -9.199  51.208 175.153  0.00  0.00    -0.572 OA
ATOM     42  O5S SGN d 503      -8.938  49.220 173.853  0.00  0.00    -0.572 OA
ATOM     43  O6S SGN d 503      -9.682  51.311 172.883  0.00  0.00    -0.572 OA
ENDBRANCH  39  40
ENDBRANCH  38  39
ENDBRANCH  15  38
ENDBRANCH   8   9
ENDBRANCH   5   8
BRANCH   1  44
ATOM     44  O2  IDS d 504     -17.400  51.837 175.786  0.00  0.00    -0.233 OA
BRANCH  44  45
ATOM     45  S   IDS d 504     -18.822  51.367 176.142  0.00  0.00     0.252 S 
ATOM     46  O3S IDS d 504     -18.628  50.051 176.623  0.00  0.00    -0.572 OA
ATOM     47  O2S IDS d 504     -19.620  51.464 174.955  0.00  0.00    -0.572 OA
ATOM     48  O1S IDS d 504     -19.289  52.238 177.157  0.00  0.00    -0.572 OA
ENDBRANCH  44  45
ENDBRANCH   1  44
BRANCH   4  49
ATOM     49  C6  IDS d 504     -12.993  53.211 174.065  0.00  0.00     0.216 C 
ATOM     50  O62 IDS d 504     -11.808  53.471 174.285  0.00  0.00    -0.646 OA
ATOM     51  O61 IDS d 504     -13.433  53.444 172.947  0.00  0.00    -0.646 OA
ENDBRANCH   4  49
BRANCH   7  52
ATOM     52  O4  IDS d 504     -15.783  54.119 174.899  0.00  0.00    -0.326 OA
BRANCH  52  53
ATOM     53  C1  SGN d 505     -16.240  55.417 175.170  0.00  0.00     0.263 C 
ATOM     54  C2  SGN d 505     -17.502  55.737 174.392  0.00  0.00     0.207 C 
ATOM     55  C3  SGN d 505     -17.212  55.793 172.879  0.00  0.00     0.210 C 
ATOM     56  C4  SGN d 505     -16.101  56.869 172.704  0.00  0.00     0.180 C 
ATOM     57  O3  SGN d 505     -18.400  56.189 172.207  0.00  0.00    -0.218 OA
ATOM     58  C5  SGN d 505     -14.927  56.404 173.504  0.00  0.00     0.179 C 
ATOM     59  O5  SGN d 505     -15.251  56.357 174.859  0.00  0.00    -0.327 OA
BRANCH  54  60
ATOM     60  N   SGN d 505     -18.577  54.801 174.797  0.00  0.00    -0.162 NA
BRANCH  60  61
ATOM     61  S1  SGN d 505     -19.979  55.463 175.432  0.00  0.00     0.227 S 
ATOM     62  O3S SGN d 505     -19.705  55.795 176.785  0.00  0.00    -0.577 OA
ATOM     63  O1S SGN d 505     -20.324  56.615 174.625  0.00  0.00    -0.577 OA
ATOM     64  O2S SGN d 505     -20.963  54.409 175.338  0.00  0.00    -0.577 OA
ENDBRANCH  60  61
ENDBRANCH  54  60
BRANCH  56  65
ATOM     65  O4  SGN d 505     -15.624  57.043 171.386  0.00  0.00    -0.326 OA
BRANCH  65  66
ATOM     66  C1  IDS d 506     -16.451  57.135 170.278  0.00  0.00     0.269 C 
ATOM     67  C2  IDS d 506     -15.583  57.192 169.013  0.00  0.00     0.226 C 
ATOM     68  C3  IDS d 506     -16.369  57.632 167.746  0.00  0.00     0.219 C 
ATOM     69  O3  IDS d 506     -17.024  56.490 167.201  0.00  0.00    -0.218 OA
ATOM     70  C4  IDS d 506     -17.427  58.721 168.019  0.00  0.00     0.223 C 
ATOM     71  O4  IDS d 506     -16.756  59.959 168.050  0.00  0.00    -0.217 OA
ATOM     72  C5  IDS d 506     -18.123  58.477 169.363  0.00  0.00     0.237 C 
ATOM     73  O5  IDS d 506     -17.177  58.334 170.371  0.00  0.00    -0.318 OA
BRANCH  67  74
ATOM     74  O2  IDS d 506     -14.532  58.123 169.186  0.00  0.00    -0.233 OA
BRANCH  74  75
ATOM     75  S   IDS d 506     -13.258  58.352 168.264  0.00  0.00     0.252 S 
ATOM     76  O1S IDS d 506     -13.675  59.310 167.286  0.00  0.00    -0.572 OA
ATOM     77  O2S IDS d 506     -12.203  58.877 169.084  0.00  0.00    -0.572 OA
ATOM     78  O3S IDS d 506     -12.951  57.056 167.698  0.00  0.00    -0.572 OA
ENDBRANCH  74  75
ENDBRANCH  67  74
BRANCH  72  79
ATOM     79  C6  IDS d 506     -19.159  59.501 169.787  0.00  0.00     0.217 C 
ATOM     80  O61 IDS d 506     -19.254  59.826 170.962  0.00  0.00    -0.646 OA
ATOM     81  O62 IDS d 506     -19.927  60.012 168.989  0.00  0.00    -0.646 OA
ENDBRANCH  72  79
ENDBRANCH  65  66
ENDBRANCH  56  65
BRANCH  58  82
ATOM     82  C6  SGN d 505     -13.748  57.316 173.387  0.00  0.00     0.198 C 
BRANCH  82  83
ATOM     83  O6  SGN d 505     -12.663  56.480 173.171  0.00  0.00    -0.235 OA
BRANCH  83  84
ATOM     84  S2  SGN d 505     -11.642  56.567 172.045  0.00  0.00     0.252 S 
ATOM     85  O6S SGN d 505     -12.291  56.056 170.845  0.00  0.00    -0.572 OA
ATOM     86  O4S SGN d 505     -11.320  57.973 171.950  0.00  0.00    -0.572 OA
ATOM     87  O5S SGN d 505     -10.551  55.732 172.481  0.00  0.00    -0.572 OA
ENDBRANCH  83  84
ENDBRANCH  82  83
ENDBRANCH  58  82
ENDBRANCH  52  53
ENDBRANCH   7  52
TORSDOF 27

ENDMDL
MODEL 7
REMARK VINA RESULT:       3.6      4.327      7.395
REMARK  27 active torsions:
REMARK  status: ('A' for Active; 'I' for Inactive)
REMARK    1  A    between atoms: C2_1  and  O2_78 
REMARK    2  A    between atoms: C1_3  and  O4_50 
REMARK    3  A    between atoms: O4_5  and  C4_58 
REMARK    4  A    between atoms: O4_5  and  C1_27 
REMARK    5  A    between atoms: C2_6  and  N_39 
REMARK    6  A    between atoms: S1_9  and  N_39 
REMARK    7  A    between atoms: C6_10  and  C5_52 
REMARK    8  A    between atoms: C2_12  and  N_73 
REMARK    9  A    between atoms: C2_19  and  O2_24 
REMARK   10  A    between atoms: C2_21  and  O2_44 
REMARK   11  A    between atoms: S2_23  and  O6_65 
REMARK   12  A    between atoms: O2_24  and  S_54 
REMARK   13  A    between atoms: C1_28  and  O4_60 
REMARK   14  A    between atoms: C5_29  and  C6_38 
REMARK   15  A    between atoms: C5_30  and  C6_33 
REMARK   16  A    between atoms: S1_34  and  N_73 
REMARK   17  A    between atoms: C5_41  and  C6_46 
REMARK   18  A    between atoms: S_43  and  O2_44 
REMARK   19  A    between atoms: C6_46  and  O6_72 
REMARK   20  A    between atoms: O4_50  and  C4_71 
REMARK   21  A    between atoms: C1_56  and  O4_64 
REMARK   22  A    between atoms: O4_60  and  C4_83 
REMARK   23  A    between atoms: C4_61  and  O4_64 
REMARK   24  A    between atoms: S2_63  and  O6_72 
REMARK   25  A    between atoms: O6_65  and  C6_67 
REMARK   26  A    between atoms: C6_67  and  C5_75 
REMARK   27  A    between atoms: S_76  and  O2_78 
ROOT
ATOM      1  C2  IDS d 504     -16.834  51.177 175.875  0.00  0.00     0.226 C 
ATOM      2  O3  IDS d 504     -18.356  49.318 175.383  0.00  0.00    -0.218 OA
ATOM      3  O5  IDS d 504     -16.460  51.624 173.510  0.00  0.00    -0.318 OA
ATOM      4  C5  IDS d 504     -16.797  50.310 173.129  0.00  0.00     0.234 C 
ATOM      5  C1  IDS d 504     -17.122  52.082 174.694  0.00  0.00     0.269 C 
ATOM      6  C3  IDS d 504     -16.979  49.649 175.513  0.00  0.00     0.216 C 
ATOM      7  C4  IDS d 504     -16.313  49.319 174.186  0.00  0.00     0.189 C 
ENDROOT
BRANCH   5   8
ATOM      8  O4  SGN d 503     -18.508  52.169 174.534  0.00  0.00    -0.326 OA
BRANCH   8   9
ATOM      9  C4  SGN d 503     -18.959  53.435 174.179  0.00  0.00     0.180 C 
ATOM     10  C3  SGN d 503     -18.282  54.462 175.083  0.00  0.00     0.210 C 
ATOM     11  C2  SGN d 503     -18.601  55.849 174.555  0.00  0.00     0.207 C 
ATOM     12  O3  SGN d 503     -18.805  54.312 176.389  0.00  0.00    -0.218 OA
ATOM     13  C1  SGN d 503     -18.245  55.983 173.067  0.00  0.00     0.263 C 
ATOM     14  O5  SGN d 503     -18.922  54.996 172.331  0.00  0.00    -0.327 OA
ATOM     15  C5  SGN d 503     -18.587  53.697 172.709  0.00  0.00     0.179 C 
BRANCH  11  16
ATOM     16  N   SGN d 503     -17.934  56.878 175.333  0.00  0.00    -0.162 NA
BRANCH  16  17
ATOM     17  S1  SGN d 503     -18.600  58.363 175.346  0.00  0.00     0.227 S 
ATOM     18  O1S SGN d 503     -19.510  58.408 174.216  0.00  0.00    -0.577 OA
ATOM     19  O2S SGN d 503     -19.297  58.539 176.619  0.00  0.00    -0.577 OA
ATOM     20  O3S SGN d 503     -17.463  59.238 175.176  0.00  0.00    -0.577 OA
ENDBRANCH  16  17
ENDBRANCH  11  16
BRANCH  13  21
ATOM     21  O4  IDS d 502     -16.859  55.907 172.875  0.00  0.00    -0.326 OA
BRANCH  21  22
ATOM     22  C4  IDS d 502     -16.247  57.117 172.512  0.00  0.00     0.189 C 
ATOM     23  C3  IDS d 502     -14.803  57.149 173.048  0.00  0.00     0.216 C 
ATOM     24  O3  IDS d 502     -14.269  58.443 172.853  0.00  0.00    -0.218 OA
ATOM     25  C2  IDS d 502     -13.918  56.151 172.295  0.00  0.00     0.229 C 
ATOM     26  C1  IDS d 502     -14.081  56.273 170.784  0.00  0.00     0.301 C 
ATOM     27  O1  IDS d 502     -13.442  57.452 170.374  0.00  0.00    -0.187 OA
ATOM     28  O5  IDS d 502     -15.436  56.235 170.411  0.00  0.00    -0.316 OA
ATOM     29  C5  IDS d 502     -16.238  57.245 170.990  0.00  0.00     0.234 C 
BRANCH  25  30
ATOM     30  O2  IDS d 502     -14.325  54.864 172.675  0.00  0.00    -0.232 OA
BRANCH  30  31
ATOM     31  S   IDS d 502     -13.656  53.918 173.726  0.00  0.00     0.252 S 
ATOM     32  O3S IDS d 502     -14.344  54.195 174.960  0.00  0.00    -0.572 OA
ATOM     33  O2S IDS d 502     -12.257  54.277 173.745  0.00  0.00    -0.572 OA
ATOM     34  O1S IDS d 502     -13.867  52.569 173.281  0.00  0.00    -0.572 OA
ENDBRANCH  30  31
ENDBRANCH  25  30
BRANCH  29  35
ATOM     35  C6  IDS d 502     -17.622  57.262 170.357  0.00  0.00     0.216 C 
ATOM     36  O61 IDS d 502     -18.433  58.108 170.646  0.00  0.00    -0.646 OA
ATOM     37  O62 IDS d 502     -17.946  56.425 169.537  0.00  0.00    -0.646 OA
ENDBRANCH  29  35
ENDBRANCH  21  22
ENDBRANCH  13  21
BRANCH  15  38
ATOM     38  C6  SGN d 503     -19.303  52.818 171.720  0.00  0.00     0.198 C 
BRANCH  38  39
ATOM     39  O6  SGN d 503     -20.608  53.331 171.562  0.00  0.00    -0.235 OA
BRANCH  39  40
ATOM     40  S2  SGN d 503     -21.361  53.484 170.214  0.00  0.00     0.252 S 
ATOM     41  O4S SGN d 503     -22.639  54.053 170.478  0.00  0.00    -0.572 OA
ATOM     42  O5S SGN d 503     -20.545  54.345 169.363  0.00  0.00    -0.572 OA
ATOM     43  O6S SGN d 503     -21.506  52.156 169.758  0.00  0.00    -0.572 OA
ENDBRANCH  39  40
ENDBRANCH  38  39
ENDBRANCH  15  38
ENDBRANCH   8   9
ENDBRANCH   5   8
BRANCH   1  44
ATOM     44  O2  IDS d 504     -15.516  51.456 176.344  0.00  0.00    -0.233 OA
BRANCH  44  45
ATOM     45  S   IDS d 504     -15.137  52.150 177.664  0.00  0.00     0.252 S 
ATOM     46  O3S IDS d 504     -15.711  51.319 178.655  0.00  0.00    -0.572 OA
ATOM     47  O2S IDS d 504     -15.660  53.484 177.618  0.00  0.00    -0.572 OA
ATOM     48  O1S IDS d 504     -13.721  52.147 177.725  0.00  0.00    -0.572 OA
ENDBRANCH  44  45
ENDBRANCH   1  44
BRANCH   4  49
ATOM     49  C6  IDS d 504     -16.313  50.025 171.697  0.00  0.00     0.216 C 
ATOM     50  O62 IDS d 504     -16.847  49.155 171.006  0.00  0.00    -0.646 OA
ATOM     51  O61 IDS d 504     -15.373  50.643 171.216  0.00  0.00    -0.646 OA
ENDBRANCH   4  49
BRANCH   7  52
ATOM     52  O4  IDS d 504     -14.904  49.409 174.333  0.00  0.00    -0.326 OA
BRANCH  52  53
ATOM     53  C1  SGN d 505     -14.291  48.197 174.679  0.00  0.00     0.263 C 
ATOM     54  C2  SGN d 505     -12.948  48.423 175.346  0.00  0.00     0.207 C 
ATOM     55  C3  SGN d 505     -11.940  49.035 174.354  0.00  0.00     0.210 C 
ATOM     56  C4  SGN d 505     -11.866  48.038 173.161  0.00  0.00     0.180 C 
ATOM     57  O3  SGN d 505     -10.677  49.137 174.998  0.00  0.00    -0.218 OA
ATOM     58  C5  SGN d 505     -13.248  47.940 172.600  0.00  0.00     0.179 C 
ATOM     59  O5  SGN d 505     -14.118  47.396 173.544  0.00  0.00    -0.327 OA
BRANCH  54  60
ATOM     60  N   SGN d 505     -13.147  49.186 176.600  0.00  0.00    -0.162 NA
BRANCH  60  61
ATOM     61  S1  SGN d 505     -13.617  48.329 177.962  0.00  0.00     0.227 S 
ATOM     62  O3S SGN d 505     -13.121  49.037 179.088  0.00  0.00    -0.577 OA
ATOM     63  O1S SGN d 505     -15.061  48.236 177.943  0.00  0.00    -0.577 OA
ATOM     64  O2S SGN d 505     -12.979  47.040 177.828  0.00  0.00    -0.577 OA
ENDBRANCH  60  61
ENDBRANCH  54  60
BRANCH  56  65
ATOM     65  O4  SGN d 505     -11.041  48.435 172.086  0.00  0.00    -0.326 OA
BRANCH  65  66
ATOM     66  C1  IDS d 506      -9.725  48.842 172.239  0.00  0.00     0.269 C 
ATOM     67  C2  IDS d 506      -9.182  49.293 170.875  0.00  0.00     0.226 C 
ATOM     68  C3  IDS d 506      -7.636  49.448 170.849  0.00  0.00     0.219 C 
ATOM     69  O3  IDS d 506      -7.302  50.734 171.366  0.00  0.00    -0.218 OA
ATOM     70  C4  IDS d 506      -6.890  48.378 171.674  0.00  0.00     0.223 C 
ATOM     71  O4  IDS d 506      -6.801  47.221 170.876  0.00  0.00    -0.217 OA
ATOM     72  C5  IDS d 506      -7.653  48.059 172.964  0.00  0.00     0.237 C 
ATOM     73  O5  IDS d 506      -8.973  47.737 172.672  0.00  0.00    -0.318 OA
BRANCH  67  74
ATOM     74  O2  IDS d 506      -9.514  48.343 169.881  0.00  0.00    -0.233 OA
BRANCH  74  75
ATOM     75  S   IDS d 506      -9.148  48.366 168.335  0.00  0.00     0.252 S 
ATOM     76  O1S IDS d 506     -10.281  48.959 167.694  0.00  0.00    -0.572 OA
ATOM     77  O2S IDS d 506      -7.976  49.178 168.167  0.00  0.00    -0.572 OA
ATOM     78  O3S IDS d 506      -8.943  46.982 167.965  0.00  0.00    -0.572 OA
ENDBRANCH  74  75
ENDBRANCH  67  74
BRANCH  72  79
ATOM     79  C6  IDS d 506      -7.059  46.984 173.856  0.00  0.00     0.217 C 
ATOM     80  O61 IDS d 506      -7.492  45.841 173.808  0.00  0.00    -0.646 OA
ATOM     81  O62 IDS d 506      -6.160  47.222 174.644  0.00  0.00    -0.646 OA
ENDBRANCH  72  79
ENDBRANCH  65  66
ENDBRANCH  56  65
BRANCH  58  82
ATOM     82  C6  SGN d 505     -13.324  47.053 171.400  0.00  0.00     0.198 C 
BRANCH  82  83
ATOM     83  O6  SGN d 505     -14.088  47.754 170.478  0.00  0.00    -0.235 OA
BRANCH  83  84
ATOM     84  S2  SGN d 505     -13.662  48.221 169.094  0.00  0.00     0.252 S 
ATOM     85  O6S SGN d 505     -14.881  48.462 168.335  0.00  0.00    -0.572 OA
ATOM     86  O4S SGN d 505     -12.903  49.428 169.331  0.00  0.00    -0.572 OA
ATOM     87  O5S SGN d 505     -12.889  47.125 168.564  0.00  0.00    -0.572 OA
ENDBRANCH  83  84
ENDBRANCH  82  83
ENDBRANCH  58  82
ENDBRANCH  52  53
ENDBRANCH   7  52
TORSDOF 27

ENDMDL
MODEL 8
REMARK VINA RESULT:       3.7      4.421      9.749
REMARK  27 active torsions:
REMARK  status: ('A' for Active; 'I' for Inactive)
REMARK    1  A    between atoms: C2_1  and  O2_78 
REMARK    2  A    between atoms: C1_3  and  O4_50 
REMARK    3  A    between atoms: O4_5  and  C4_58 
REMARK    4  A    between atoms: O4_5  and  C1_27 
REMARK    5  A    between atoms: C2_6  and  N_39 
REMARK    6  A    between atoms: S1_9  and  N_39 
REMARK    7  A    between atoms: C6_10  and  C5_52 
REMARK    8  A    between atoms: C2_12  and  N_73 
REMARK    9  A    between atoms: C2_19  and  O2_24 
REMARK   10  A    between atoms: C2_21  and  O2_44 
REMARK   11  A    between atoms: S2_23  and  O6_65 
REMARK   12  A    between atoms: O2_24  and  S_54 
REMARK   13  A    between atoms: C1_28  and  O4_60 
REMARK   14  A    between atoms: C5_29  and  C6_38 
REMARK   15  A    between atoms: C5_30  and  C6_33 
REMARK   16  A    between atoms: S1_34  and  N_73 
REMARK   17  A    between atoms: C5_41  and  C6_46 
REMARK   18  A    between atoms: S_43  and  O2_44 
REMARK   19  A    between atoms: C6_46  and  O6_72 
REMARK   20  A    between atoms: O4_50  and  C4_71 
REMARK   21  A    between atoms: C1_56  and  O4_64 
REMARK   22  A    between atoms: O4_60  and  C4_83 
REMARK   23  A    between atoms: C4_61  and  O4_64 
REMARK   24  A    between atoms: S2_63  and  O6_72 
REMARK   25  A    between atoms: O6_65  and  C6_67 
REMARK   26  A    between atoms: C6_67  and  C5_75 
REMARK   27  A    between atoms: S_76  and  O2_78 
ROOT
ATOM      1  C2  IDS d 504     -23.033  49.041 174.505  0.00  0.00     0.226 C 
ATOM      2  O3  IDS d 504     -23.148  48.310 172.167  0.00  0.00    -0.218 OA
ATOM      3  O5  IDS d 504     -21.247  50.627 174.023  0.00  0.00    -0.318 OA
ATOM      4  C5  IDS d 504     -20.825  49.921 172.878  0.00  0.00     0.234 C 
ATOM      5  C1  IDS d 504     -22.642  50.493 174.316  0.00  0.00     0.269 C 
ATOM      6  C3  IDS d 504     -22.438  48.106 173.383  0.00  0.00     0.216 C 
ATOM      7  C4  IDS d 504     -20.976  48.419 173.105  0.00  0.00     0.189 C 
ENDROOT
BRANCH   5   8
ATOM      8  O4  SGN d 503     -23.454  51.041 173.318  0.00  0.00    -0.326 OA
BRANCH   8   9
ATOM      9  C4  SGN d 503     -23.563  52.426 173.373  0.00  0.00     0.180 C 
ATOM     10  C3  SGN d 503     -23.233  52.882 174.793  0.00  0.00     0.210 C 
ATOM     11  C2  SGN d 503     -23.136  54.396 174.798  0.00  0.00     0.207 C 
ATOM     12  O3  SGN d 503     -24.282  52.463 175.645  0.00  0.00    -0.218 OA
ATOM     13  C1  SGN d 503     -22.161  54.905 173.726  0.00  0.00     0.263 C 
ATOM     14  O5  SGN d 503     -22.559  54.430 172.465  0.00  0.00    -0.327 OA
ATOM     15  C5  SGN d 503     -22.567  53.039 172.374  0.00  0.00     0.179 C 
BRANCH  11  16
ATOM     16  N   SGN d 503     -22.760  54.899 176.107  0.00  0.00    -0.162 NA
BRANCH  16  17
ATOM     17  S1  SGN d 503     -23.367  56.337 176.565  0.00  0.00     0.227 S 
ATOM     18  O1S SGN d 503     -22.375  57.330 176.199  0.00  0.00    -0.577 OA
ATOM     19  O2S SGN d 503     -24.634  56.543 175.864  0.00  0.00    -0.577 OA
ATOM     20  O3S SGN d 503     -23.508  56.197 177.997  0.00  0.00    -0.577 OA
ENDBRANCH  16  17
ENDBRANCH  11  16
BRANCH  13  21
ATOM     21  O4  IDS d 502     -20.845  54.525 174.026  0.00  0.00    -0.326 OA
BRANCH  21  22
ATOM     22  C4  IDS d 502     -19.941  55.591 174.158  0.00  0.00     0.189 C 
ATOM     23  C3  IDS d 502     -19.345  55.590 175.579  0.00  0.00     0.216 C 
ATOM     24  O3  IDS d 502     -18.596  56.775 175.764  0.00  0.00    -0.218 OA
ATOM     25  C2  IDS d 502     -18.405  54.398 175.778  0.00  0.00     0.229 C 
ATOM     26  C1  IDS d 502     -17.412  54.258 174.629  0.00  0.00     0.301 C 
ATOM     27  O1  IDS d 502     -16.461  55.282 174.752  0.00  0.00    -0.187 OA
ATOM     28  O5  IDS d 502     -18.065  54.274 173.384  0.00  0.00    -0.316 OA
ATOM     29  C5  IDS d 502     -18.824  55.440 173.128  0.00  0.00     0.234 C 
BRANCH  25  30
ATOM     30  O2  IDS d 502     -19.198  53.242 175.811  0.00  0.00    -0.232 OA
BRANCH  30  31
ATOM     31  S   IDS d 502     -19.044  52.000 176.750  0.00  0.00     0.252 S 
ATOM     32  O3S IDS d 502     -20.375  51.463 176.870  0.00  0.00    -0.572 OA
ATOM     33  O2S IDS d 502     -18.507  52.509 177.991  0.00  0.00    -0.572 OA
ATOM     34  O1S IDS d 502     -18.148  51.084 176.102  0.00  0.00    -0.572 OA
ENDBRANCH  30  31
ENDBRANCH  25  30
BRANCH  29  35
ATOM     35  C6  IDS d 502     -19.300  55.465 171.682  0.00  0.00     0.216 C 
ATOM     36  O61 IDS d 502     -19.286  54.469 171.001  0.00  0.00    -0.646 OA
ATOM     37  O62 IDS d 502     -19.712  56.491 171.177  0.00  0.00    -0.646 OA
ENDBRANCH  29  35
ENDBRANCH  21  22
ENDBRANCH  13  21
BRANCH  15  38
ATOM     38  C6  SGN d 503     -22.879  52.755 170.930  0.00  0.00     0.198 C 
BRANCH  38  39
ATOM     39  O6  SGN d 503     -21.988  51.752 170.492  0.00  0.00    -0.235 OA
BRANCH  39  40
ATOM     40  S2  SGN d 503     -22.263  50.735 169.353  0.00  0.00     0.252 S 
ATOM     41  O4S SGN d 503     -21.439  49.594 169.564  0.00  0.00    -0.572 OA
ATOM     42  O5S SGN d 503     -23.683  50.401 169.411  0.00  0.00    -0.572 OA
ATOM     43  O6S SGN d 503     -21.857  51.418 168.188  0.00  0.00    -0.572 OA
ENDBRANCH  39  40
ENDBRANCH  38  39
ENDBRANCH  15  38
ENDBRANCH   8   9
ENDBRANCH   5   8
BRANCH   1  44
ATOM     44  O2  IDS d 504     -22.586  48.621 175.793  0.00  0.00    -0.233 OA
BRANCH  44  45
ATOM     45  S   IDS d 504     -23.384  47.798 176.820  0.00  0.00     0.252 S 
ATOM     46  O3S IDS d 504     -22.545  47.783 177.960  0.00  0.00    -0.572 OA
ATOM     47  O2S IDS d 504     -23.638  46.511 176.241  0.00  0.00    -0.572 OA
ATOM     48  O1S IDS d 504     -24.586  48.510 177.057  0.00  0.00    -0.572 OA
ENDBRANCH  44  45
ENDBRANCH   1  44
BRANCH   4  49
ATOM     49  C6  IDS d 504     -19.420  50.379 172.453  0.00  0.00     0.216 C 
ATOM     50  O62 IDS d 504     -18.892  49.945 171.426  0.00  0.00    -0.646 OA
ATOM     51  O61 IDS d 504     -18.783  51.173 173.134  0.00  0.00    -0.646 OA
ENDBRANCH   4  49
BRANCH   7  52
ATOM     52  O4  IDS d 504     -20.190  48.010 174.214  0.00  0.00    -0.326 OA
BRANCH  52  53
ATOM     53  C1  SGN d 505     -19.481  46.819 173.999  0.00  0.00     0.263 C 
ATOM     54  C2  SGN d 505     -19.008  46.209 175.304  0.00  0.00     0.207 C 
ATOM     55  C3  SGN d 505     -17.953  47.108 175.977  0.00  0.00     0.210 C 
ATOM     56  C4  SGN d 505     -16.811  47.271 174.932  0.00  0.00     0.180 C 
ATOM     57  O3  SGN d 505     -17.474  46.449 177.141  0.00  0.00    -0.218 OA
ATOM     58  C5  SGN d 505     -17.424  47.899 173.723  0.00  0.00     0.179 C 
ATOM     59  O5  SGN d 505     -18.380  47.050 173.166  0.00  0.00    -0.327 OA
BRANCH  54  60
ATOM     60  N   SGN d 505     -20.182  45.874 176.142  0.00  0.00    -0.162 NA
BRANCH  60  61
ATOM     61  S1  SGN d 505     -20.310  44.299 176.700  0.00  0.00     0.227 S 
ATOM     62  O3S SGN d 505     -19.228  43.571 176.139  0.00  0.00    -0.577 OA
ATOM     63  O1S SGN d 505     -20.273  44.343 178.147  0.00  0.00    -0.577 OA
ATOM     64  O2S SGN d 505     -21.579  43.827 176.195  0.00  0.00    -0.577 OA
ENDBRANCH  60  61
ENDBRANCH  54  60
BRANCH  56  65
ATOM     65  O4  SGN d 505     -15.752  48.124 175.314  0.00  0.00    -0.326 OA
BRANCH  65  66
ATOM     66  C1  IDS d 506     -14.939  47.892 176.413  0.00  0.00     0.269 C 
ATOM     67  C2  IDS d 506     -14.012  49.100 176.610  0.00  0.00     0.226 C 
ATOM     68  C3  IDS d 506     -12.837  48.822 177.588  0.00  0.00     0.219 C 
ATOM     69  O3  IDS d 506     -13.305  49.009 178.921  0.00  0.00    -0.218 OA
ATOM     70  C4  IDS d 506     -12.254  47.398 177.468  0.00  0.00     0.223 C 
ATOM     71  O4  IDS d 506     -11.363  47.402 176.377  0.00  0.00    -0.217 OA
ATOM     72  C5  IDS d 506     -13.367  46.374 177.223  0.00  0.00     0.237 C 
ATOM     73  O5  IDS d 506     -14.146  46.765 176.141  0.00  0.00    -0.318 OA
BRANCH  67  74
ATOM     74  O2  IDS d 506     -13.436  49.477 175.374  0.00  0.00    -0.233 OA
BRANCH  74  75
ATOM     75  S   IDS d 506     -13.224  50.940 174.792  0.00  0.00     0.252 S 
ATOM     76  O1S IDS d 506     -14.122  51.031 173.682  0.00  0.00    -0.572 OA
ATOM     77  O2S IDS d 506     -13.573  51.883 175.817  0.00  0.00    -0.572 OA
ATOM     78  O3S IDS d 506     -11.831  51.005 174.406  0.00  0.00    -0.572 OA
ENDBRANCH  74  75
ENDBRANCH  67  74
BRANCH  72  79
ATOM     79  C6  IDS d 506     -12.933  44.932 177.037  0.00  0.00     0.217 C 
ATOM     80  O61 IDS d 506     -13.147  44.361 175.976  0.00  0.00    -0.646 OA
ATOM     81  O62 IDS d 506     -12.384  44.302 177.924  0.00  0.00    -0.646 OA
ENDBRANCH  72  79
ENDBRANCH  65  66
ENDBRANCH  56  65
BRANCH  58  82
ATOM     82  C6  SGN d 505     -16.427  48.172 172.643  0.00  0.00     0.198 C 
BRANCH  82  83
ATOM     83  O6  SGN d 505     -16.705  47.245 171.650  0.00  0.00    -0.235 OA
BRANCH  83  84
ATOM     84  S2  SGN d 505     -16.578  47.440 170.146  0.00  0.00     0.252 S 
ATOM     85  O6S SGN d 505     -15.712  46.378 169.653  0.00  0.00    -0.572 OA
ATOM     86  O4S SGN d 505     -17.930  47.334 169.647  0.00  0.00    -0.572 OA
ATOM     87  O5S SGN d 505     -15.988  48.747 169.999  0.00  0.00    -0.572 OA
ENDBRANCH  83  84
ENDBRANCH  82  83
ENDBRANCH  58  82
ENDBRANCH  52  53
ENDBRANCH   7  52
TORSDOF 27

ENDMDL
MODEL 9
REMARK VINA RESULT:       3.7      3.114     10.076
REMARK  27 active torsions:
REMARK  status: ('A' for Active; 'I' for Inactive)
REMARK    1  A    between atoms: C2_1  and  O2_78 
REMARK    2  A    between atoms: C1_3  and  O4_50 
REMARK    3  A    between atoms: O4_5  and  C4_58 
REMARK    4  A    between atoms: O4_5  and  C1_27 
REMARK    5  A    between atoms: C2_6  and  N_39 
REMARK    6  A    between atoms: S1_9  and  N_39 
REMARK    7  A    between atoms: C6_10  and  C5_52 
REMARK    8  A    between atoms: C2_12  and  N_73 
REMARK    9  A    between atoms: C2_19  and  O2_24 
REMARK   10  A    between atoms: C2_21  and  O2_44 
REMARK   11  A    between atoms: S2_23  and  O6_65 
REMARK   12  A    between atoms: O2_24  and  S_54 
REMARK   13  A    between atoms: C1_28  and  O4_60 
REMARK   14  A    between atoms: C5_29  and  C6_38 
REMARK   15  A    between atoms: C5_30  and  C6_33 
REMARK   16  A    between atoms: S1_34  and  N_73 
REMARK   17  A    between atoms: C5_41  and  C6_46 
REMARK   18  A    between atoms: S_43  and  O2_44 
REMARK   19  A    between atoms: C6_46  and  O6_72 
REMARK   20  A    between atoms: O4_50  and  C4_71 
REMARK   21  A    between atoms: C1_56  and  O4_64 
REMARK   22  A    between atoms: O4_60  and  C4_83 
REMARK   23  A    between atoms: C4_61  and  O4_64 
REMARK   24  A    between atoms: S2_63  and  O6_72 
REMARK   25  A    between atoms: O6_65  and  C6_67 
REMARK   26  A    between atoms: C6_67  and  C5_75 
REMARK   27  A    between atoms: S_76  and  O2_78 
ROOT
ATOM      1  C2  IDS d 504     -13.944  50.873 175.750  0.00  0.00     0.226 C 
ATOM      2  O3  IDS d 504     -13.139  52.234 173.876  0.00  0.00    -0.218 OA
ATOM      3  O5  IDS d 504     -14.632  49.066 174.267  0.00  0.00    -0.318 OA
ATOM      4  C5  IDS d 504     -14.764  49.924 173.157  0.00  0.00     0.234 C 
ATOM      5  C1  IDS d 504     -13.650  49.483 175.221  0.00  0.00     0.269 C 
ATOM      6  C3  IDS d 504     -14.312  51.889 174.601  0.00  0.00     0.216 C 
ATOM      7  C4  IDS d 504     -15.291  51.285 173.606  0.00  0.00     0.189 C 
ENDROOT
BRANCH   5   8
ATOM      8  O4  SGN d 503     -12.355  49.479 174.693  0.00  0.00    -0.326 OA
BRANCH   8   9
ATOM      9  C4  SGN d 503     -11.787  48.214 174.597  0.00  0.00     0.180 C 
ATOM     10  C3  SGN d 503     -12.309  47.359 175.750  0.00  0.00     0.210 C 
ATOM     11  C2  SGN d 503     -11.866  45.926 175.521  0.00  0.00     0.207 C 
ATOM     12  O3  SGN d 503     -11.749  47.851 176.952  0.00  0.00    -0.218 OA
ATOM     13  C1  SGN d 503     -12.270  45.424 174.127  0.00  0.00     0.263 C 
ATOM     14  O5  SGN d 503     -11.735  46.279 173.147  0.00  0.00    -0.327 OA
ATOM     15  C5  SGN d 503     -12.192  47.591 173.250  0.00  0.00     0.179 C 
BRANCH  11  16
ATOM     16  N   SGN d 503     -12.384  45.041 176.550  0.00  0.00    -0.162 NA
BRANCH  16  17
ATOM     17  S1  SGN d 503     -11.437  43.807 177.029  0.00  0.00     0.227 S 
ATOM     18  O1S SGN d 503     -11.997  42.611 176.428  0.00  0.00    -0.577 OA
ATOM     19  O2S SGN d 503     -10.076  44.070 176.564  0.00  0.00    -0.577 OA
ATOM     20  O3S SGN d 503     -11.577  43.822 178.467  0.00  0.00    -0.577 OA
ENDBRANCH  16  17
ENDBRANCH  11  16
BRANCH  13  21
ATOM     21  O4  IDS d 502     -13.663  45.323 174.015  0.00  0.00    -0.326 OA
BRANCH  21  22
ATOM     22  C4  IDS d 502     -14.147  44.015 173.853  0.00  0.00     0.189 C 
ATOM     23  C3  IDS d 502     -14.931  43.594 175.111  0.00  0.00     0.216 C 
ATOM     24  O3  IDS d 502     -15.238  42.217 175.021  0.00  0.00    -0.218 OA
ATOM     25  C2  IDS d 502     -16.248  44.368 175.220  0.00  0.00     0.229 C 
ATOM     26  C1  IDS d 502     -17.023  44.361 173.906  0.00  0.00     0.301 C 
ATOM     27  O1  IDS d 502     -17.561  43.078 173.730  0.00  0.00    -0.187 OA
ATOM     28  O5  IDS d 502     -16.209  44.758 172.831  0.00  0.00    -0.316 OA
ATOM     29  C5  IDS d 502     -15.060  43.959 172.630  0.00  0.00     0.234 C 
BRANCH  25  30
ATOM     30  O2  IDS d 502     -15.925  45.698 175.528  0.00  0.00    -0.232 OA
BRANCH  30  31
ATOM     31  S   IDS d 502     -16.786  46.732 176.326  0.00  0.00     0.252 S 
ATOM     32  O3S IDS d 502     -17.773  45.938 177.010  0.00  0.00    -0.572 OA
ATOM     33  O2S IDS d 502     -17.340  47.629 175.339  0.00  0.00    -0.572 OA
ATOM     34  O1S IDS d 502     -15.904  47.404 177.241  0.00  0.00    -0.572 OA
ENDBRANCH  30  31
ENDBRANCH  25  30
BRANCH  29  35
ATOM     35  C6  IDS d 502     -14.373  44.322 171.321  0.00  0.00     0.216 C 
ATOM     36  O61 IDS d 502     -14.542  45.399 170.803  0.00  0.00    -0.646 OA
ATOM     37  O62 IDS d 502     -13.631  43.536 170.764  0.00  0.00    -0.646 OA
ENDBRANCH  29  35
ENDBRANCH  21  22
ENDBRANCH  13  21
BRANCH  15  38
ATOM     38  C6  SGN d 503     -11.618  48.288 172.045  0.00  0.00     0.198 C 
BRANCH  38  39
ATOM     39  O6  SGN d 503     -12.473  48.024 170.954  0.00  0.00    -0.235 OA
BRANCH  39  40
ATOM     40  S2  SGN d 503     -12.056  48.023 169.460  0.00  0.00     0.252 S 
ATOM     41  O4S SGN d 503     -12.031  49.370 169.001  0.00  0.00    -0.572 OA
ATOM     42  O5S SGN d 503     -10.739  47.397 169.384  0.00  0.00    -0.572 OA
ATOM     43  O6S SGN d 503     -13.094  47.312 168.822  0.00  0.00    -0.572 OA
ENDBRANCH  39  40
ENDBRANCH  38  39
ENDBRANCH  15  38
ENDBRANCH   8   9
ENDBRANCH   5   8
BRANCH   1  44
ATOM     44  O2  IDS d 504     -15.011  50.777 176.692  0.00  0.00    -0.233 OA
BRANCH  44  45
ATOM     45  S   IDS d 504     -14.993  51.260 178.153  0.00  0.00     0.252 S 
ATOM     46  O3S IDS d 504     -14.618  50.106 178.881  0.00  0.00    -0.572 OA
ATOM     47  O2S IDS d 504     -16.299  51.767 178.458  0.00  0.00    -0.572 OA
ATOM     48  O1S IDS d 504     -14.008  52.276 178.227  0.00  0.00    -0.572 OA
ENDBRANCH  44  45
ENDBRANCH   1  44
BRANCH   4  49
ATOM     49  C6  IDS d 504     -15.579  49.242 172.045  0.00  0.00     0.216 C 
ATOM     50  O62 IDS d 504     -15.892  48.052 172.123  0.00  0.00    -0.646 OA
ATOM     51  O61 IDS d 504     -15.923  49.862 171.046  0.00  0.00    -0.646 OA
ENDBRANCH   4  49
BRANCH   7  52
ATOM     52  O4  IDS d 504     -16.560  51.137 174.226  0.00  0.00    -0.326 OA
BRANCH  52  53
ATOM     53  C1  SGN d 505     -17.537  52.013 173.734  0.00  0.00     0.263 C 
ATOM     54  C2  SGN d 505     -18.468  52.485 174.834  0.00  0.00     0.207 C 
ATOM     55  C3  SGN d 505     -19.311  51.314 175.376  0.00  0.00     0.210 C 
ATOM     56  C4  SGN d 505     -20.069  50.737 174.145  0.00  0.00     0.180 C 
ATOM     57  O3  SGN d 505     -20.230  51.825 176.332  0.00  0.00    -0.218 OA
ATOM     58  C5  SGN d 505     -19.026  50.298 173.168  0.00  0.00     0.179 C 
ATOM     59  O5  SGN d 505     -18.285  51.393 172.725  0.00  0.00    -0.327 OA
BRANCH  54  60
ATOM     60  N   SGN d 505     -17.687  53.227 175.850  0.00  0.00    -0.162 NA
BRANCH  60  61
ATOM     61  S1  SGN d 505     -17.873  54.892 175.904  0.00  0.00     0.227 S 
ATOM     62  O3S SGN d 505     -17.698  55.371 174.579  0.00  0.00    -0.577 OA
ATOM     63  O1S SGN d 505     -19.190  55.169 176.437  0.00  0.00    -0.577 OA
ATOM     64  O2S SGN d 505     -16.817  55.356 176.774  0.00  0.00    -0.577 OA
ENDBRANCH  60  61
ENDBRANCH  54  60
BRANCH  56  65
ATOM     65  O4  SGN d 505     -20.863  49.596 174.398  0.00  0.00    -0.326 OA
BRANCH  65  66
ATOM     66  C1  IDS d 506     -22.174  49.659 174.845  0.00  0.00     0.269 C 
ATOM     67  C2  IDS d 506     -22.672  48.233 175.125  0.00  0.00     0.226 C 
ATOM     68  C3  IDS d 506     -24.213  48.144 175.303  0.00  0.00     0.219 C 
ATOM     69  O3  IDS d 506     -24.533  48.482 176.650  0.00  0.00    -0.218 OA
ATOM     70  C4  IDS d 506     -25.002  49.078 174.361  0.00  0.00     0.223 C 
ATOM     71  O4  IDS d 506     -25.095  48.432 173.113  0.00  0.00    -0.217 OA
ATOM     72  C5  IDS d 506     -24.280  50.420 174.197  0.00  0.00     0.237 C 
ATOM     73  O5  IDS d 506     -22.960  50.208 173.818  0.00  0.00    -0.318 OA
BRANCH  67  74
ATOM     74  O2  IDS d 506     -22.334  47.380 174.049  0.00  0.00    -0.233 OA
BRANCH  74  75
ATOM     75  S   IDS d 506     -21.568  45.988 174.100  0.00  0.00     0.252 S 
ATOM     76  O1S IDS d 506     -22.213  45.247 175.140  0.00  0.00    -0.572 OA
ATOM     77  O2S IDS d 506     -21.730  45.343 172.829  0.00  0.00    -0.572 OA
ATOM     78  O3S IDS d 506     -20.191  46.315 174.404  0.00  0.00    -0.572 OA
ENDBRANCH  74  75
ENDBRANCH  67  74
BRANCH  72  79
ATOM     79  C6  IDS d 506     -24.919  51.424 173.257  0.00  0.00     0.217 C 
ATOM     80  O61 IDS d 506     -24.322  51.789 172.253  0.00  0.00    -0.646 OA
ATOM     81  O62 IDS d 506     -26.019  51.904 173.474  0.00  0.00    -0.646 OA
ENDBRANCH  72  79
ENDBRANCH  65  66
ENDBRANCH  56  65
BRANCH  58  82
ATOM     82  C6  SGN d 505     -19.606  49.663 171.947  0.00  0.00     0.198 C 
BRANCH  82  83
ATOM     83  O6  SGN d 505     -19.085  48.378 171.923  0.00  0.00    -0.235 OA
BRANCH  83  84
ATOM     84  S2  SGN d 505     -19.223  47.349 170.811  0.00  0.00     0.252 S 
ATOM     85  O6S SGN d 505     -18.333  47.765 169.735  0.00  0.00    -0.572 OA
ATOM     86  O4S SGN d 505     -18.821  46.099 171.415  0.00  0.00    -0.572 OA
ATOM     87  O5S SGN d 505     -20.613  47.409 170.432  0.00  0.00    -0.572 OA
ENDBRANCH  83  84
ENDBRANCH  82  83
ENDBRANCH  58  82
ENDBRANCH  52  53
ENDBRANCH   7  52
TORSDOF 27

ENDMDL
MODEL 10
REMARK VINA RESULT:       3.8      3.899      9.448
REMARK  27 active torsions:
REMARK  status: ('A' for Active; 'I' for Inactive)
REMARK    1  A    between atoms: C2_1  and  O2_78 
REMARK    2  A    between atoms: C1_3  and  O4_50 
REMARK    3  A    between atoms: O4_5  and  C4_58 
REMARK    4  A    between atoms: O4_5  and  C1_27 
REMARK    5  A    between atoms: C2_6  and  N_39 
REMARK    6  A    between atoms: S1_9  and  N_39 
REMARK    7  A    between atoms: C6_10  and  C5_52 
REMARK    8  A    between atoms: C2_12  and  N_73 
REMARK    9  A    between atoms: C2_19  and  O2_24 
REMARK   10  A    between atoms: C2_21  and  O2_44 
REMARK   11  A    between atoms: S2_23  and  O6_65 
REMARK   12  A    between atoms: O2_24  and  S_54 
REMARK   13  A    between atoms: C1_28  and  O4_60 
REMARK   14  A    between atoms: C5_29  and  C6_38 
REMARK   15  A    between atoms: C5_30  and  C6_33 
REMARK   16  A    between atoms: S1_34  and  N_73 
REMARK   17  A    between atoms: C5_41  and  C6_46 
REMARK   18  A    between atoms: S_43  and  O2_44 
REMARK   19  A    between atoms: C6_46  and  O6_72 
REMARK   20  A    between atoms: O4_50  and  C4_71 
REMARK   21  A    between atoms: C1_56  and  O4_64 
REMARK   22  A    between atoms: O4_60  and  C4_83 
REMARK   23  A    between atoms: C4_61  and  O4_64 
REMARK   24  A    between atoms: S2_63  and  O6_72 
REMARK   25  A    between atoms: O6_65  and  C6_67 
REMARK   26  A    between atoms: C6_67  and  C5_75 
REMARK   27  A    between atoms: S_76  and  O2_78 
ROOT
ATOM      1  C2  IDS d 504     -20.023  47.098 175.154  0.00  0.00     0.226 C 
ATOM      2  O3  IDS d 504     -19.799  47.322 177.586  0.00  0.00    -0.218 OA
ATOM      3  O5  IDS d 504     -17.776  47.958 174.771  0.00  0.00    -0.318 OA
ATOM      4  C5  IDS d 504     -17.750  48.653 175.997  0.00  0.00     0.234 C 
ATOM      5  C1  IDS d 504     -18.590  46.780 174.778  0.00  0.00     0.269 C 
ATOM      6  C3  IDS d 504     -20.121  48.050 176.408  0.00  0.00     0.216 C 
ATOM      7  C4  IDS d 504     -19.137  49.207 176.315  0.00  0.00     0.189 C 
ENDROOT
BRANCH   5   8
ATOM      8  O4  SGN d 503     -18.111  45.804 175.657  0.00  0.00    -0.326 OA
BRANCH   8   9
ATOM      9  C4  SGN d 503     -17.086  45.024 175.134  0.00  0.00     0.180 C 
ATOM     10  C3  SGN d 503     -17.400  44.730 173.669  0.00  0.00     0.210 C 
ATOM     11  C2  SGN d 503     -16.185  44.072 173.042  0.00  0.00     0.207 C 
ATOM     12  O3  SGN d 503     -18.504  43.846 173.625  0.00  0.00    -0.218 OA
ATOM     13  C1  SGN d 503     -14.914  44.905 173.261  0.00  0.00     0.263 C 
ATOM     14  O5  SGN d 503     -14.720  45.112 174.638  0.00  0.00    -0.327 OA
ATOM     15  C5  SGN d 503     -15.765  45.806 175.245  0.00  0.00     0.179 C 
BRANCH  11  16
ATOM     16  N   SGN d 503     -16.390  43.821 171.626  0.00  0.00    -0.162 NA
BRANCH  16  17
ATOM     17  S1  SGN d 503     -15.930  42.373 171.044  0.00  0.00     0.227 S 
ATOM     18  O1S SGN d 503     -16.985  41.944 170.145  0.00  0.00    -0.577 OA
ATOM     19  O2S SGN d 503     -14.654  42.544 170.350  0.00  0.00    -0.577 OA
ATOM     20  O3S SGN d 503     -15.845  41.550 172.230  0.00  0.00    -0.577 OA
ENDBRANCH  16  17
ENDBRANCH  11  16
BRANCH  13  21
ATOM     21  O4  IDS d 502     -14.984  46.119 172.564  0.00  0.00    -0.326 OA
BRANCH  21  22
ATOM     22  C4  IDS d 502     -14.113  46.219 171.467  0.00  0.00     0.189 C 
ATOM     23  C3  IDS d 502     -14.895  45.977 170.162  0.00  0.00     0.216 C 
ATOM     24  O3  IDS d 502     -13.979  45.880 169.089  0.00  0.00    -0.218 OA
ATOM     25  C2  IDS d 502     -15.847  47.141 169.870  0.00  0.00     0.229 C 
ATOM     26  C1  IDS d 502     -15.151  48.492 170.002  0.00  0.00     0.301 C 
ATOM     27  O1  IDS d 502     -14.302  48.649 168.897  0.00  0.00    -0.187 OA
ATOM     28  O5  IDS d 502     -14.469  48.599 171.227  0.00  0.00    -0.316 OA
ATOM     29  C5  IDS d 502     -13.483  47.610 171.444  0.00  0.00     0.234 C 
BRANCH  25  30
ATOM     30  O2  IDS d 502     -16.875  47.087 170.823  0.00  0.00    -0.232 OA
BRANCH  30  31
ATOM     31  S   IDS d 502     -18.377  47.480 170.633  0.00  0.00     0.252 S 
ATOM     32  O3S IDS d 502     -18.549  48.669 171.427  0.00  0.00    -0.572 OA
ATOM     33  O2S IDS d 502     -19.143  46.349 171.105  0.00  0.00    -0.572 OA
ATOM     34  O1S IDS d 502     -18.579  47.730 169.233  0.00  0.00    -0.572 OA
ENDBRANCH  30  31
ENDBRANCH  25  30
BRANCH  29  35
ATOM     35  C6  IDS d 502     -12.652  47.940 172.677  0.00  0.00     0.216 C 
ATOM     36  O61 IDS d 502     -12.831  48.959 173.298  0.00  0.00    -0.646 OA
ATOM     37  O62 IDS d 502     -11.788  47.181 173.071  0.00  0.00    -0.646 OA
ENDBRANCH  29  35
ENDBRANCH  21  22
ENDBRANCH  13  21
BRANCH  15  38
ATOM     38  C6  SGN d 503     -15.296  46.038 176.656  0.00  0.00     0.198 C 
BRANCH  38  39
ATOM     39  O6  SGN d 503     -14.375  47.106 176.628  0.00  0.00    -0.235 OA
BRANCH  39  40
ATOM     40  S2  SGN d 503     -13.049  47.176 177.430  0.00  0.00     0.252 S 
ATOM     41  O4S SGN d 503     -12.629  45.846 177.716  0.00  0.00    -0.572 OA
ATOM     42  O5S SGN d 503     -12.082  47.886 176.598  0.00  0.00    -0.572 OA
ATOM     43  O6S SGN d 503     -13.411  47.837 178.623  0.00  0.00    -0.572 OA
ENDBRANCH  39  40
ENDBRANCH  38  39
ENDBRANCH  15  38
ENDBRANCH   8   9
ENDBRANCH   5   8
BRANCH   1  44
ATOM     44  O2  IDS d 504     -20.661  47.692 174.026  0.00  0.00    -0.233 OA
BRANCH  44  45
ATOM     45  S   IDS d 504     -21.914  47.172 173.297  0.00  0.00     0.252 S 
ATOM     46  O3S IDS d 504     -21.641  45.797 173.105  0.00  0.00    -0.572 OA
ATOM     47  O2S IDS d 504     -22.060  47.932 172.090  0.00  0.00    -0.572 OA
ATOM     48  O1S IDS d 504     -23.004  47.377 174.179  0.00  0.00    -0.572 OA
ENDBRANCH  44  45
ENDBRANCH   1  44
BRANCH   4  49
ATOM     49  C6  IDS d 504     -16.615  49.691 176.002  0.00  0.00     0.216 C 
ATOM     50  O62 IDS d 504     -16.262  50.243 177.046  0.00  0.00    -0.646 OA
ATOM     51  O61 IDS d 504     -16.048  50.008 174.964  0.00  0.00    -0.646 OA
ENDBRANCH   4  49
BRANCH   7  52
ATOM     52  O4  IDS d 504     -19.554  50.097 175.290  0.00  0.00    -0.326 OA
BRANCH  52  53
ATOM     53  C1  SGN d 505     -20.260  51.213 175.762  0.00  0.00     0.263 C 
ATOM     54  C2  SGN d 505     -21.078  51.861 174.661  0.00  0.00     0.207 C 
ATOM     55  C3  SGN d 505     -20.159  52.475 173.587  0.00  0.00     0.210 C 
ATOM     56  C4  SGN d 505     -19.247  53.486 174.342  0.00  0.00     0.180 C 
ATOM     57  O3  SGN d 505     -20.969  53.150 172.633  0.00  0.00    -0.218 OA
ATOM     58  C5  SGN d 505     -18.497  52.701 175.368  0.00  0.00     0.179 C 
ATOM     59  O5  SGN d 505     -19.377  52.155 176.302  0.00  0.00    -0.327 OA
BRANCH  54  60
ATOM     60  N   SGN d 505     -22.078  50.890 174.160  0.00  0.00    -0.162 NA
BRANCH  60  61
ATOM     61  S1  SGN d 505     -23.597  50.909 174.869  0.00  0.00     0.227 S 
ATOM     62  O3S SGN d 505     -24.526  50.519 173.868  0.00  0.00    -0.577 OA
ATOM     63  O1S SGN d 505     -23.565  50.001 175.996  0.00  0.00    -0.577 OA
ATOM     64  O2S SGN d 505     -23.803  52.281 175.271  0.00  0.00    -0.577 OA
ENDBRANCH  60  61
ENDBRANCH  54  60
BRANCH  56  65
ATOM     65  O4  SGN d 505     -18.266  54.127 173.554  0.00  0.00    -0.326 OA
BRANCH  65  66
ATOM     66  C1  IDS d 506     -18.320  55.468 173.204  0.00  0.00     0.269 C 
ATOM     67  C2  IDS d 506     -17.113  55.798 172.314  0.00  0.00     0.226 C 
ATOM     68  C3  IDS d 506     -16.877  57.323 172.137  0.00  0.00     0.219 C 
ATOM     69  O3  IDS d 506     -17.729  57.795 171.096  0.00  0.00    -0.218 OA
ATOM     70  C4  IDS d 506     -17.159  58.147 173.412  0.00  0.00     0.223 C 
ATOM     71  O4  IDS d 506     -16.018  58.052 174.232  0.00  0.00    -0.217 OA
ATOM     72  C5  IDS d 506     -18.379  57.594 174.157  0.00  0.00     0.237 C 
ATOM     73  O5  IDS d 506     -18.225  56.231 174.380  0.00  0.00    -0.318 OA
BRANCH  67  74
ATOM     74  O2  IDS d 506     -15.931  55.264 172.880  0.00  0.00    -0.233 OA
BRANCH  74  75
ATOM     75  S   IDS d 506     -14.792  54.419 172.164  0.00  0.00     0.252 S 
ATOM     76  O1S IDS d 506     -15.201  53.055 172.298  0.00  0.00    -0.572 OA
ATOM     77  O2S IDS d 506     -14.747  54.810 170.783  0.00  0.00    -0.572 OA
ATOM     78  O3S IDS d 506     -13.574  54.723 172.884  0.00  0.00    -0.572 OA
ENDBRANCH  74  75
ENDBRANCH  67  74
BRANCH  72  79
ATOM     79  C6  IDS d 506     -18.746  58.279 175.460  0.00  0.00     0.217 C 
ATOM     80  O61 IDS d 506     -18.811  59.499 175.513  0.00  0.00    -0.646 OA
ATOM     81  O62 IDS d 506     -18.969  57.650 176.480  0.00  0.00    -0.646 OA
ENDBRANCH  72  79
ENDBRANCH  65  66
ENDBRANCH  56  65
BRANCH  58  82
ATOM     82  C6  SGN d 505     -17.528  53.535 176.142  0.00  0.00     0.198 C 
BRANCH  82  83
ATOM     83  O6  SGN d 505     -16.284  53.235 175.609  0.00  0.00    -0.235 OA
BRANCH  83  84
ATOM     84  S2  SGN d 505     -14.923  53.569 176.202  0.00  0.00     0.252 S 
ATOM     85  O6S SGN d 505     -14.976  53.210 177.613  0.00  0.00    -0.572 OA
ATOM     86  O4S SGN d 505     -13.987  52.759 175.455  0.00  0.00    -0.572 OA
ATOM     87  O5S SGN d 505     -14.779  54.989 176.000  0.00  0.00    -0.572 OA
ENDBRANCH  83  84
ENDBRANCH  82  83
ENDBRANCH  58  82
ENDBRANCH  52  53
ENDBRANCH   7  52
TORSDOF 27

ENDMDL
MODEL 11
REMARK VINA RESULT:       3.8      3.426     10.550
REMARK  27 active torsions:
REMARK  status: ('A' for Active; 'I' for Inactive)
REMARK    1  A    between atoms: C2_1  and  O2_78 
REMARK    2  A    between atoms: C1_3  and  O4_50 
REMARK    3  A    between atoms: O4_5  and  C4_58 
REMARK    4  A    between atoms: O4_5  and  C1_27 
REMARK    5  A    between atoms: C2_6  and  N_39 
REMARK    6  A    between atoms: S1_9  and  N_39 
REMARK    7  A    between atoms: C6_10  and  C5_52 
REMARK    8  A    between atoms: C2_12  and  N_73 
REMARK    9  A    between atoms: C2_19  and  O2_24 
REMARK   10  A    between atoms: C2_21  and  O2_44 
REMARK   11  A    between atoms: S2_23  and  O6_65 
REMARK   12  A    between atoms: O2_24  and  S_54 
REMARK   13  A    between atoms: C1_28  and  O4_60 
REMARK   14  A    between atoms: C5_29  and  C6_38 
REMARK   15  A    between atoms: C5_30  and  C6_33 
REMARK   16  A    between atoms: S1_34  and  N_73 
REMARK   17  A    between atoms: C5_41  and  C6_46 
REMARK   18  A    between atoms: S_43  and  O2_44 
REMARK   19  A    between atoms: C6_46  and  O6_72 
REMARK   20  A    between atoms: O4_50  and  C4_71 
REMARK   21  A    between atoms: C1_56  and  O4_64 
REMARK   22  A    between atoms: O4_60  and  C4_83 
REMARK   23  A    between atoms: C4_61  and  O4_64 
REMARK   24  A    between atoms: S2_63  and  O6_72 
REMARK   25  A    between atoms: O6_65  and  C6_67 
REMARK   26  A    between atoms: C6_67  and  C5_75 
REMARK   27  A    between atoms: S_76  and  O2_78 
ROOT
ATOM      1  C2  IDS d 504     -14.246  50.414 175.339  0.00  0.00     0.226 C 
ATOM      2  O3  IDS d 504     -13.998  51.690 173.259  0.00  0.00    -0.218 OA
ATOM      3  O5  IDS d 504     -15.272  48.535 174.177  0.00  0.00    -0.318 OA
ATOM      4  C5  IDS d 504     -15.713  49.338 173.106  0.00  0.00     0.234 C 
ATOM      5  C1  IDS d 504     -14.078  49.003 174.812  0.00  0.00     0.269 C 
ATOM      6  C3  IDS d 504     -14.927  51.372 174.287  0.00  0.00     0.216 C 
ATOM      7  C4  IDS d 504     -16.125  50.715 173.620  0.00  0.00     0.189 C 
ENDROOT
BRANCH   5   8
ATOM      8  O4  SGN d 503     -12.972  48.981 173.956  0.00  0.00    -0.326 OA
BRANCH   8   9
ATOM      9  C4  SGN d 503     -12.386  47.728 173.820  0.00  0.00     0.180 C 
ATOM     10  C3  SGN d 503     -12.713  46.902 175.062  0.00  0.00     0.210 C 
ATOM     11  C2  SGN d 503     -12.264  45.473 174.817  0.00  0.00     0.207 C 
ATOM     12  O3  SGN d 503     -12.000  47.450 176.155  0.00  0.00    -0.218 OA
ATOM     13  C1  SGN d 503     -12.849  44.912 173.513  0.00  0.00     0.263 C 
ATOM     14  O5  SGN d 503     -12.486  45.745 172.439  0.00  0.00    -0.327 OA
ATOM     15  C5  SGN d 503     -12.962  47.048 172.565  0.00  0.00     0.179 C 
BRANCH  11  16
ATOM     16  N   SGN d 503     -12.603  44.613 175.937  0.00  0.00    -0.162 NA
BRANCH  16  17
ATOM     17  S1  SGN d 503     -11.385  43.832 176.683  0.00  0.00     0.227 S 
ATOM     18  O1S SGN d 503     -11.476  42.447 176.264  0.00  0.00    -0.577 OA
ATOM     19  O2S SGN d 503     -10.126  44.450 176.268  0.00  0.00    -0.577 OA
ATOM     20  O3S SGN d 503     -11.688  44.008 178.085  0.00  0.00    -0.577 OA
ENDBRANCH  16  17
ENDBRANCH  11  16
BRANCH  13  21
ATOM     21  O4  IDS d 502     -14.240  44.773 173.606  0.00  0.00    -0.326 OA
BRANCH  21  22
ATOM     22  C4  IDS d 502     -14.717  43.471 173.381  0.00  0.00     0.189 C 
ATOM     23  C3  IDS d 502     -15.328  42.913 174.681  0.00  0.00     0.216 C 
ATOM     24  O3  IDS d 502     -15.619  41.541 174.499  0.00  0.00    -0.218 OA
ATOM     25  C2  IDS d 502     -16.634  43.634 175.027  0.00  0.00     0.229 C 
ATOM     26  C1  IDS d 502     -17.569  43.726 173.825  0.00  0.00     0.301 C 
ATOM     27  O1  IDS d 502     -18.103  42.449 173.595  0.00  0.00    -0.187 OA
ATOM     28  O5  IDS d 502     -16.905  44.245 172.699  0.00  0.00    -0.316 OA
ATOM     29  C5  IDS d 502     -15.777  43.502 172.282  0.00  0.00     0.234 C 
BRANCH  25  30
ATOM     30  O2  IDS d 502     -16.299  44.939 175.417  0.00  0.00    -0.232 OA
BRANCH  30  31
ATOM     31  S   IDS d 502     -16.773  45.708 176.694  0.00  0.00     0.252 S 
ATOM     32  O3S IDS d 502     -17.429  46.887 176.190  0.00  0.00    -0.572 OA
ATOM     33  O2S IDS d 502     -15.577  45.987 177.454  0.00  0.00    -0.572 OA
ATOM     34  O1S IDS d 502     -17.680  44.845 177.399  0.00  0.00    -0.572 OA
ENDBRANCH  30  31
ENDBRANCH  25  30
BRANCH  29  35
ATOM     35  C6  IDS d 502     -15.268  44.005 170.938  0.00  0.00     0.216 C 
ATOM     36  O61 IDS d 502     -14.313  43.500 170.401  0.00  0.00    -0.646 OA
ATOM     37  O62 IDS d 502     -15.816  44.928 170.367  0.00  0.00    -0.646 OA
ENDBRANCH  29  35
ENDBRANCH  21  22
ENDBRANCH  13  21
BRANCH  15  38
ATOM     38  C6  SGN d 503     -12.587  47.715 171.269  0.00  0.00     0.198 C 
BRANCH  38  39
ATOM     39  O6  SGN d 503     -13.761  47.825 170.493  0.00  0.00    -0.235 OA
BRANCH  39  40
ATOM     40  S2  SGN d 503     -13.842  47.663 168.952  0.00  0.00     0.252 S 
ATOM     41  O4S SGN d 503     -12.874  48.522 168.360  0.00  0.00    -0.572 OA
ATOM     42  O5S SGN d 503     -13.579  46.258 168.655  0.00  0.00    -0.572 OA
ATOM     43  O6S SGN d 503     -15.143  48.108 168.636  0.00  0.00    -0.572 OA
ENDBRANCH  39  40
ENDBRANCH  38  39
ENDBRANCH  15  38
ENDBRANCH   8   9
ENDBRANCH   5   8
BRANCH   1  44
ATOM     44  O2  IDS d 504     -15.019  50.357 176.536  0.00  0.00    -0.233 OA
BRANCH  44  45
ATOM     45  S   IDS d 504     -14.640  50.951 177.905  0.00  0.00     0.252 S 
ATOM     46  O3S IDS d 504     -15.889  51.278 178.484  0.00  0.00    -0.572 OA
ATOM     47  O2S IDS d 504     -13.773  52.068 177.668  0.00  0.00    -0.572 OA
ATOM     48  O1S IDS d 504     -13.980  49.920 178.619  0.00  0.00    -0.572 OA
ENDBRANCH  44  45
ENDBRANCH   1  44
BRANCH   4  49
ATOM     49  C6  IDS d 504     -16.783  48.599 172.285  0.00  0.00     0.216 C 
ATOM     50  O62 IDS d 504     -17.254  49.095 171.259  0.00  0.00    -0.646 OA
ATOM     51  O61 IDS d 504     -17.208  47.508 172.642  0.00  0.00    -0.646 OA
ENDBRANCH   4  49
BRANCH   7  52
ATOM     52  O4  IDS d 504     -17.178  50.590 174.564  0.00  0.00    -0.326 OA
BRANCH  52  53
ATOM     53  C1  SGN d 505     -18.314  51.349 174.251  0.00  0.00     0.263 C 
ATOM     54  C2  SGN d 505     -18.981  51.894 175.499  0.00  0.00     0.207 C 
ATOM     55  C3  SGN d 505     -19.568  50.751 176.349  0.00  0.00     0.210 C 
ATOM     56  C4  SGN d 505     -20.556  49.995 175.413  0.00  0.00     0.180 C 
ATOM     57  O3  SGN d 505     -20.262  51.319 177.452  0.00  0.00    -0.218 OA
ATOM     58  C5  SGN d 505     -19.753  49.503 174.252  0.00  0.00     0.179 C 
ATOM     59  O5  SGN d 505     -19.234  50.578 173.531  0.00  0.00    -0.327 OA
BRANCH  54  60
ATOM     60  N   SGN d 505     -18.037  52.790 176.206  0.00  0.00    -0.162 NA
BRANCH  60  61
ATOM     61  S1  SGN d 505     -18.166  54.436 175.915  0.00  0.00     0.227 S 
ATOM     62  O3S SGN d 505     -18.009  54.621 174.516  0.00  0.00    -0.577 OA
ATOM     63  O1S SGN d 505     -19.459  54.867 176.402  0.00  0.00    -0.577 OA
ATOM     64  O2S SGN d 505     -17.073  55.030 176.649  0.00  0.00    -0.577 OA
ENDBRANCH  60  61
ENDBRANCH  54  60
BRANCH  56  65
ATOM     65  O4  SGN d 505     -21.168  48.851 175.970  0.00  0.00    -0.326 OA
BRANCH  65  66
ATOM     66  C1  IDS d 506     -22.480  48.825 176.419  0.00  0.00     0.269 C 
ATOM     67  C2  IDS d 506     -22.799  47.416 176.939  0.00  0.00     0.226 C 
ATOM     68  C3  IDS d 506     -24.318  47.169 177.152  0.00  0.00     0.219 C 
ATOM     69  O3  IDS d 506     -24.686  47.685 178.429  0.00  0.00    -0.218 OA
ATOM     70  C4  IDS d 506     -25.211  47.829 176.080  0.00  0.00     0.223 C 
ATOM     71  O4  IDS d 506     -25.216  46.978 174.958  0.00  0.00    -0.217 OA
ATOM     72  C5  IDS d 506     -24.659  49.203 175.685  0.00  0.00     0.237 C 
ATOM     73  O5  IDS d 506     -23.321  49.095 175.326  0.00  0.00    -0.318 OA
BRANCH  67  74
ATOM     74  O2  IDS d 506     -22.351  46.443 176.015  0.00  0.00    -0.233 OA
BRANCH  74  75
ATOM     75  S   IDS d 506     -21.227  45.339 176.217  0.00  0.00     0.252 S 
ATOM     76  O1S IDS d 506     -20.725  45.556 177.539  0.00  0.00    -0.572 OA
ATOM     77  O2S IDS d 506     -21.845  44.048 176.105  0.00  0.00    -0.572 OA
ATOM     78  O3S IDS d 506     -20.245  45.594 175.185  0.00  0.00    -0.572 OA
ENDBRANCH  74  75
ENDBRANCH  67  74
BRANCH  72  79
ATOM     79  C6  IDS d 506     -25.412  49.950 174.600  0.00  0.00     0.217 C 
ATOM     80  O61 IDS d 506     -26.457  50.528 174.868  0.00  0.00    -0.646 OA
ATOM     81  O62 IDS d 506     -25.018  49.986 173.447  0.00  0.00    -0.646 OA
ENDBRANCH  72  79
ENDBRANCH  65  66
ENDBRANCH  56  65
BRANCH  58  82
ATOM     82  C6  SGN d 505     -20.562  48.701 173.286  0.00  0.00     0.198 C 
BRANCH  82  83
ATOM     83  O6  SGN d 505     -20.572  49.445 172.116  0.00  0.00    -0.235 OA
BRANCH  83  84
ATOM     84  S2  SGN d 505     -21.783  49.823 171.275  0.00  0.00     0.252 S 
ATOM     85  O6S SGN d 505     -21.313  49.990 169.906  0.00  0.00    -0.572 OA
ATOM     86  O4S SGN d 505     -22.693  48.710 171.420  0.00  0.00    -0.572 OA
ATOM     87  O5S SGN d 505     -22.253  51.058 171.851  0.00  0.00    -0.572 OA
ENDBRANCH  83  84
ENDBRANCH  82  83
ENDBRANCH  58  82
ENDBRANCH  52  53
ENDBRANCH   7  52
TORSDOF 27

ENDMDL
MODEL 12
REMARK VINA RESULT:       3.8      3.044     11.044
REMARK  27 active torsions:
REMARK  status: ('A' for Active; 'I' for Inactive)
REMARK    1  A    between atoms: C2_1  and  O2_78 
REMARK    2  A    between atoms: C1_3  and  O4_50 
REMARK    3  A    between atoms: O4_5  and  C4_58 
REMARK    4  A    between atoms: O4_5  and  C1_27 
REMARK    5  A    between atoms: C2_6  and  N_39 
REMARK    6  A    between atoms: S1_9  and  N_39 
REMARK    7  A    between atoms: C6_10  and  C5_52 
REMARK    8  A    between atoms: C2_12  and  N_73 
REMARK    9  A    between atoms: C2_19  and  O2_24 
REMARK   10  A    between atoms: C2_21  and  O2_44 
REMARK   11  A    between atoms: S2_23  and  O6_65 
REMARK   12  A    between atoms: O2_24  and  S_54 
REMARK   13  A    between atoms: C1_28  and  O4_60 
REMARK   14  A    between atoms: C5_29  and  C6_38 
REMARK   15  A    between atoms: C5_30  and  C6_33 
REMARK   16  A    between atoms: S1_34  and  N_73 
REMARK   17  A    between atoms: C5_41  and  C6_46 
REMARK   18  A    between atoms: S_43  and  O2_44 
REMARK   19  A    between atoms: C6_46  and  O6_72 
REMARK   20  A    between atoms: O4_50  and  C4_71 
REMARK   21  A    between atoms: C1_56  and  O4_64 
REMARK   22  A    between atoms: O4_60  and  C4_83 
REMARK   23  A    between atoms: C4_61  and  O4_64 
REMARK   24  A    between atoms: S2_63  and  O6_72 
REMARK   25  A    between atoms: O6_65  and  C6_67 
REMARK   26  A    between atoms: C6_67  and  C5_75 
REMARK   27  A    between atoms: S_76  and  O2_78 
ROOT
ATOM      1  C2  IDS d 504      -9.548  46.526 170.248  0.00  0.00     0.226 C 
ATOM      2  O3  IDS d 504      -9.713  44.420 171.493  0.00  0.00    -0.218 OA
ATOM      3  O5  IDS d 504      -9.003  47.786 172.261  0.00  0.00    -0.318 OA
ATOM      4  C5  IDS d 504      -9.617  46.843 173.110  0.00  0.00     0.234 C 
ATOM      5  C1  IDS d 504      -8.474  47.232 171.052  0.00  0.00     0.269 C 
ATOM      6  C3  IDS d 504     -10.447  45.585 171.140  0.00  0.00     0.216 C 
ATOM      7  C4  IDS d 504     -10.860  46.264 172.437  0.00  0.00     0.189 C 
ENDROOT
BRANCH   5   8
ATOM      8  O4  SGN d 503      -7.434  46.328 171.286  0.00  0.00    -0.326 OA
BRANCH   8   9
ATOM      9  C4  SGN d 503      -6.169  46.903 171.270  0.00  0.00     0.180 C 
ATOM     10  C3  SGN d 503      -6.309  48.372 170.877  0.00  0.00     0.210 C 
ATOM     11  C2  SGN d 503      -4.966  49.049 171.073  0.00  0.00     0.207 C 
ATOM     12  O3  SGN d 503      -6.684  48.429 169.514  0.00  0.00    -0.218 OA
ATOM     13  C1  SGN d 503      -4.418  48.823 172.489  0.00  0.00     0.263 C 
ATOM     14  O5  SGN d 503      -4.328  47.443 172.743  0.00  0.00    -0.327 OA
ATOM     15  C5  SGN d 503      -5.556  46.787 172.676  0.00  0.00     0.179 C 
BRANCH  11  16
ATOM     16  N   SGN d 503      -5.041  50.470 170.778  0.00  0.00    -0.162 NA
BRANCH  16  17
ATOM     17  S1  SGN d 503      -4.501  50.967 169.325  0.00  0.00     0.227 S 
ATOM     18  O1S SGN d 503      -3.736  49.862 168.778  0.00  0.00    -0.577 OA
ATOM     19  O2S SGN d 503      -5.659  51.297 168.496  0.00  0.00    -0.577 OA
ATOM     20  O3S SGN d 503      -3.672  52.105 169.652  0.00  0.00    -0.577 OA
ENDBRANCH  16  17
ENDBRANCH  11  16
BRANCH  13  21
ATOM     21  O4  IDS d 502      -5.216  49.469 173.444  0.00  0.00    -0.326 OA
BRANCH  21  22
ATOM     22  C4  IDS d 502      -4.524  50.354 174.286  0.00  0.00     0.189 C 
ATOM     23  C3  IDS d 502      -4.941  51.803 173.967  0.00  0.00     0.216 C 
ATOM     24  O3  IDS d 502      -4.098  52.690 174.675  0.00  0.00    -0.218 OA
ATOM     25  C2  IDS d 502      -6.384  52.067 174.407  0.00  0.00     0.229 C 
ATOM     26  C1  IDS d 502      -6.642  51.587 175.832  0.00  0.00     0.301 C 
ATOM     27  O1  IDS d 502      -6.002  52.475 176.709  0.00  0.00    -0.187 OA
ATOM     28  O5  IDS d 502      -6.221  50.257 176.007  0.00  0.00    -0.316 OA
ATOM     29  C5  IDS d 502      -4.851  50.029 175.742  0.00  0.00     0.234 C 
BRANCH  25  30
ATOM     30  O2  IDS d 502      -7.222  51.343 173.546  0.00  0.00    -0.232 OA
BRANCH  30  31
ATOM     31  S   IDS d 502      -8.357  51.898 172.624  0.00  0.00     0.252 S 
ATOM     32  O3S IDS d 502      -8.215  53.329 172.687  0.00  0.00    -0.572 OA
ATOM     33  O2S IDS d 502      -9.595  51.410 173.186  0.00  0.00    -0.572 OA
ATOM     34  O1S IDS d 502      -8.120  51.389 171.302  0.00  0.00    -0.572 OA
ENDBRANCH  30  31
ENDBRANCH  25  30
BRANCH  29  35
ATOM     35  C6  IDS d 502      -4.445  48.628 176.175  0.00  0.00     0.216 C 
ATOM     36  O61 IDS d 502      -3.376  48.417 176.694  0.00  0.00    -0.646 OA
ATOM     37  O62 IDS d 502      -5.192  47.682 176.014  0.00  0.00    -0.646 OA
ENDBRANCH  29  35
ENDBRANCH  21  22
ENDBRANCH  13  21
BRANCH  15  38
ATOM     38  C6  SGN d 503      -5.256  45.378 173.110  0.00  0.00     0.198 C 
BRANCH  38  39
ATOM     39  O6  SGN d 503      -4.492  44.772 172.090  0.00  0.00    -0.235 OA
BRANCH  39  40
ATOM     40  S2  SGN d 503      -4.904  43.517 171.276  0.00  0.00     0.252 S 
ATOM     41  O4S SGN d 503      -5.206  43.926 169.947  0.00  0.00    -0.572 OA
ATOM     42  O5S SGN d 503      -3.778  42.590 171.320  0.00  0.00    -0.572 OA
ATOM     43  O6S SGN d 503      -6.075  43.068 171.923  0.00  0.00    -0.572 OA
ENDBRANCH  39  40
ENDBRANCH  38  39
ENDBRANCH  15  38
ENDBRANCH   8   9
ENDBRANCH   5   8
BRANCH   1  44
ATOM     44  O2  IDS d 504     -10.348  47.515 169.603  0.00  0.00    -0.233 OA
BRANCH  44  45
ATOM     45  S   IDS d 504     -10.063  48.189 168.249  0.00  0.00     0.252 S 
ATOM     46  O3S IDS d 504      -9.522  49.446 168.610  0.00  0.00    -0.572 OA
ATOM     47  O2S IDS d 504     -11.299  48.250 167.525  0.00  0.00    -0.572 OA
ATOM     48  O1S IDS d 504      -9.111  47.373 167.589  0.00  0.00    -0.572 OA
ENDBRANCH  44  45
ENDBRANCH   1  44
BRANCH   4  49
ATOM     49  C6  IDS d 504      -9.853  47.449 174.504  0.00  0.00     0.216 C 
ATOM     50  O62 IDS d 504     -10.387  46.794 175.401  0.00  0.00    -0.646 OA
ATOM     51  O61 IDS d 504      -9.532  48.604 174.751  0.00  0.00    -0.646 OA
ENDBRANCH   4  49
BRANCH   7  52
ATOM     52  O4  IDS d 504     -11.788  47.299 172.150  0.00  0.00    -0.326 OA
BRANCH  52  53
ATOM     53  C1  SGN d 505     -13.123  46.872 172.123  0.00  0.00     0.263 C 
ATOM     54  C2  SGN d 505     -14.016  47.878 171.423  0.00  0.00     0.207 C 
ATOM     55  C3  SGN d 505     -14.100  49.188 172.229  0.00  0.00     0.210 C 
ATOM     56  C4  SGN d 505     -14.629  48.783 173.636  0.00  0.00     0.180 C 
ATOM     57  O3  SGN d 505     -15.020  50.058 171.583  0.00  0.00    -0.218 OA
ATOM     58  C5  SGN d 505     -13.640  47.815 174.201  0.00  0.00     0.179 C 
ATOM     59  O5  SGN d 505     -13.593  46.659 173.424  0.00  0.00    -0.327 OA
BRANCH  54  60
ATOM     60  N   SGN d 505     -13.576  48.027 170.016  0.00  0.00    -0.162 NA
BRANCH  60  61
ATOM     61  S1  SGN d 505     -14.504  47.289 168.832  0.00  0.00     0.227 S 
ATOM     62  O3S SGN d 505     -14.595  48.201 167.748  0.00  0.00    -0.577 OA
ATOM     63  O1S SGN d 505     -13.851  46.048 168.474  0.00  0.00    -0.577 OA
ATOM     64  O2S SGN d 505     -15.792  47.075 169.449  0.00  0.00    -0.577 OA
ENDBRANCH  60  61
ENDBRANCH  54  60
BRANCH  56  65
ATOM     65  O4  SGN d 505     -14.723  49.831 174.577  0.00  0.00    -0.326 OA
BRANCH  65  66
ATOM     66  C1  IDS d 506     -15.756  50.756 174.594  0.00  0.00     0.269 C 
ATOM     67  C2  IDS d 506     -15.648  51.598 175.874  0.00  0.00     0.226 C 
ATOM     68  C3  IDS d 506     -16.926  52.430 176.173  0.00  0.00     0.219 C 
ATOM     69  O3  IDS d 506     -16.868  53.637 175.416  0.00  0.00    -0.218 OA
ATOM     70  C4  IDS d 506     -18.239  51.697 175.827  0.00  0.00     0.223 C 
ATOM     71  O4  IDS d 506     -18.532  50.835 176.902  0.00  0.00    -0.217 OA
ATOM     72  C5  IDS d 506     -18.083  50.883 174.538  0.00  0.00     0.237 C 
ATOM     73  O5  IDS d 506     -16.972  50.053 174.630  0.00  0.00    -0.318 OA
BRANCH  67  74
ATOM     74  O2  IDS d 506     -15.434  50.760 176.992  0.00  0.00    -0.233 OA
BRANCH  74  75
ATOM     75  S   IDS d 506     -14.488  51.009 178.244  0.00  0.00     0.252 S 
ATOM     76  O1S IDS d 506     -13.810  52.236 177.958  0.00  0.00    -0.572 OA
ATOM     77  O2S IDS d 506     -15.315  51.137 179.410  0.00  0.00    -0.572 OA
ATOM     78  O3S IDS d 506     -13.602  49.867 178.293  0.00  0.00    -0.572 OA
ENDBRANCH  74  75
ENDBRANCH  67  74
BRANCH  72  79
ATOM     79  C6  IDS d 506     -19.285  50.067 174.100  0.00  0.00     0.217 C 
ATOM     80  O61 IDS d 506     -20.150  50.580 173.403  0.00  0.00    -0.646 OA
ATOM     81  O62 IDS d 506     -19.435  48.905 174.434  0.00  0.00    -0.646 OA
ENDBRANCH  72  79
ENDBRANCH  65  66
ENDBRANCH  56  65
BRANCH  58  82
ATOM     82  C6  SGN d 505     -13.987  47.375 175.587  0.00  0.00     0.198 C 
BRANCH  82  83
ATOM     83  O6  SGN d 505     -13.832  45.997 175.579  0.00  0.00    -0.235 OA
BRANCH  83  84
ATOM     84  S2  SGN d 505     -14.532  44.987 176.476  0.00  0.00     0.252 S 
ATOM     85  O6S SGN d 505     -15.513  44.295 175.649  0.00  0.00    -0.572 OA
ATOM     86  O4S SGN d 505     -13.478  44.114 176.939  0.00  0.00    -0.572 OA
ATOM     87  O5S SGN d 505     -15.146  45.784 177.509  0.00  0.00    -0.572 OA
ENDBRANCH  83  84
ENDBRANCH  82  83
ENDBRANCH  58  82
ENDBRANCH  52  53
ENDBRANCH   7  52
TORSDOF 27

ENDMDL
MODEL 13
REMARK VINA RESULT:       3.8      3.007     10.341
REMARK  27 active torsions:
REMARK  status: ('A' for Active; 'I' for Inactive)
REMARK    1  A    between atoms: C2_1  and  O2_78 
REMARK    2  A    between atoms: C1_3  and  O4_50 
REMARK    3  A    between atoms: O4_5  and  C4_58 
REMARK    4  A    between atoms: O4_5  and  C1_27 
REMARK    5  A    between atoms: C2_6  and  N_39 
REMARK    6  A    between atoms: S1_9  and  N_39 
REMARK    7  A    between atoms: C6_10  and  C5_52 
REMARK    8  A    between atoms: C2_12  and  N_73 
REMARK    9  A    between atoms: C2_19  and  O2_24 
REMARK   10  A    between atoms: C2_21  and  O2_44 
REMARK   11  A    between atoms: S2_23  and  O6_65 
REMARK   12  A    between atoms: O2_24  and  S_54 
REMARK   13  A    between atoms: C1_28  and  O4_60 
REMARK   14  A    between atoms: C5_29  and  C6_38 
REMARK   15  A    between atoms: C5_30  and  C6_33 
REMARK   16  A    between atoms: S1_34  and  N_73 
REMARK   17  A    between atoms: C5_41  and  C6_46 
REMARK   18  A    between atoms: S_43  and  O2_44 
REMARK   19  A    between atoms: C6_46  and  O6_72 
REMARK   20  A    between atoms: O4_50  and  C4_71 
REMARK   21  A    between atoms: C1_56  and  O4_64 
REMARK   22  A    between atoms: O4_60  and  C4_83 
REMARK   23  A    between atoms: C4_61  and  O4_64 
REMARK   24  A    between atoms: S2_63  and  O6_72 
REMARK   25  A    between atoms: O6_65  and  C6_67 
REMARK   26  A    between atoms: C6_67  and  C5_75 
REMARK   27  A    between atoms: S_76  and  O2_78 
ROOT
ATOM      1  C2  IDS d 504     -12.297  44.785 172.650  0.00  0.00     0.226 C 
ATOM      2  O3  IDS d 504     -12.499  44.013 174.969  0.00  0.00    -0.218 OA
ATOM      3  O5  IDS d 504     -11.038  46.762 173.316  0.00  0.00    -0.318 OA
ATOM      4  C5  IDS d 504     -11.567  46.753 174.622  0.00  0.00     0.234 C 
ATOM      5  C1  IDS d 504     -10.946  45.469 172.709  0.00  0.00     0.269 C 
ATOM      6  C3  IDS d 504     -13.084  44.888 174.013  0.00  0.00     0.216 C 
ATOM      7  C4  IDS d 504     -13.022  46.292 174.595  0.00  0.00     0.189 C 
ENDROOT
BRANCH   5   8
ATOM      8  O4  SGN d 503     -10.055  44.624 173.379  0.00  0.00    -0.326 OA
BRANCH   8   9
ATOM      9  C4  SGN d 503      -8.788  44.571 172.809  0.00  0.00     0.180 C 
ATOM     10  C3  SGN d 503      -8.916  44.861 171.316  0.00  0.00     0.210 C 
ATOM     11  C2  SGN d 503      -7.521  45.020 170.739  0.00  0.00     0.207 C 
ATOM     12  O3  SGN d 503      -9.566  43.762 170.708  0.00  0.00    -0.218 OA
ATOM     13  C1  SGN d 503      -6.701  46.059 171.518  0.00  0.00     0.263 C 
ATOM     14  O5  SGN d 503      -6.646  45.693 172.875  0.00  0.00    -0.327 OA
ATOM     15  C5  SGN d 503      -7.899  45.631 173.482  0.00  0.00     0.179 C 
BRANCH  11  16
ATOM     16  N   SGN d 503      -7.567  45.363 169.329  0.00  0.00    -0.162 NA
BRANCH  16  17
ATOM     17  S1  SGN d 503      -6.741  44.416 168.296  0.00  0.00     0.227 S 
ATOM     18  O1S SGN d 503      -7.108  44.854 166.962  0.00  0.00    -0.577 OA
ATOM     19  O2S SGN d 503      -5.313  44.591 168.557  0.00  0.00    -0.577 OA
ATOM     20  O3S SGN d 503      -7.232  43.090 168.597  0.00  0.00    -0.577 OA
ENDBRANCH  16  17
ENDBRANCH  11  16
BRANCH  13  21
ATOM     21  O4  IDS d 502      -7.235  47.344 171.355  0.00  0.00    -0.326 OA
BRANCH  21  22
ATOM     22  C4  IDS d 502      -6.311  48.318 170.943  0.00  0.00     0.189 C 
ATOM     23  C3  IDS d 502      -6.732  48.883 169.573  0.00  0.00     0.216 C 
ATOM     24  O3  IDS d 502      -5.696  49.709 169.079  0.00  0.00    -0.218 OA
ATOM     25  C2  IDS d 502      -7.999  49.735 169.698  0.00  0.00     0.229 C 
ATOM     26  C1  IDS d 502      -7.900  50.738 170.843  0.00  0.00     0.301 C 
ATOM     27  O1  IDS d 502      -7.016  51.755 170.450  0.00  0.00    -0.187 OA
ATOM     28  O5  IDS d 502      -7.506  50.112 172.038  0.00  0.00    -0.316 OA
ATOM     29  C5  IDS d 502      -6.263  49.442 171.975  0.00  0.00     0.234 C 
BRANCH  25  30
ATOM     30  O2  IDS d 502      -9.062  48.863 169.975  0.00  0.00    -0.232 OA
BRANCH  30  31
ATOM     31  S   IDS d 502     -10.200  48.401 169.006  0.00  0.00     0.252 S 
ATOM     32  O3S IDS d 502     -11.288  49.311 169.257  0.00  0.00    -0.572 OA
ATOM     33  O2S IDS d 502     -10.491  47.032 169.363  0.00  0.00    -0.572 OA
ATOM     34  O1S IDS d 502      -9.693  48.520 167.667  0.00  0.00    -0.572 OA
ENDBRANCH  30  31
ENDBRANCH  25  30
BRANCH  29  35
ATOM     35  C6  IDS d 502      -5.821  48.997 173.362  0.00  0.00     0.216 C 
ATOM     36  O61 IDS d 502      -4.797  48.379 173.525  0.00  0.00    -0.646 OA
ATOM     37  O62 IDS d 502      -6.486  49.259 174.346  0.00  0.00    -0.646 OA
ENDBRANCH  29  35
ENDBRANCH  21  22
ENDBRANCH  13  21
BRANCH  15  38
ATOM     38  C6  SGN d 503      -7.604  45.367 174.933  0.00  0.00     0.198 C 
BRANCH  38  39
ATOM     39  O6  SGN d 503      -6.560  46.234 175.320  0.00  0.00    -0.235 OA
BRANCH  39  40
ATOM     40  S2  SGN d 503      -5.352  45.850 176.214  0.00  0.00     0.252 S 
ATOM     41  O4S SGN d 503      -4.842  47.038 176.811  0.00  0.00    -0.572 OA
ATOM     42  O5S SGN d 503      -5.842  44.905 177.213  0.00  0.00    -0.572 OA
ATOM     43  O6S SGN d 503      -4.413  45.324 175.302  0.00  0.00    -0.572 OA
ENDBRANCH  39  40
ENDBRANCH  38  39
ENDBRANCH  15  38
ENDBRANCH   8   9
ENDBRANCH   5   8
BRANCH   1  44
ATOM     44  O2  IDS d 504     -13.051  45.374 171.592  0.00  0.00    -0.233 OA
BRANCH  44  45
ATOM     45  S   IDS d 504     -13.418  44.719 170.249  0.00  0.00     0.252 S 
ATOM     46  O3S IDS d 504     -12.316  43.875 169.977  0.00  0.00    -0.572 OA
ATOM     47  O2S IDS d 504     -13.622  45.770 169.295  0.00  0.00    -0.572 OA
ATOM     48  O1S IDS d 504     -14.607  43.981 170.475  0.00  0.00    -0.572 OA
ENDBRANCH  44  45
ENDBRANCH   1  44
BRANCH   4  49
ATOM     49  C6  IDS d 504     -11.324  48.107 175.310  0.00  0.00     0.216 C 
ATOM     50  O62 IDS d 504     -11.094  48.176 176.519  0.00  0.00    -0.646 OA
ATOM     51  O61 IDS d 504     -11.371  49.153 174.674  0.00  0.00    -0.646 OA
ENDBRANCH   4  49
BRANCH   7  52
ATOM     52  O4  IDS d 504     -13.798  47.168 173.790  0.00  0.00    -0.326 OA
BRANCH  52  53
ATOM     53  C1  SGN d 505     -15.130  47.292 174.208  0.00  0.00     0.263 C 
ATOM     54  C2  SGN d 505     -16.037  47.705 173.066  0.00  0.00     0.207 C 
ATOM     55  C3  SGN d 505     -15.702  49.132 172.591  0.00  0.00     0.210 C 
ATOM     56  C4  SGN d 505     -15.855  50.040 173.846  0.00  0.00     0.180 C 
ATOM     57  O3  SGN d 505     -16.638  49.506 171.588  0.00  0.00    -0.218 OA
ATOM     58  C5  SGN d 505     -14.890  49.525 174.865  0.00  0.00     0.179 C 
ATOM     59  O5  SGN d 505     -15.231  48.227 175.245  0.00  0.00    -0.327 OA
BRANCH  54  60
ATOM     60  N   SGN d 505     -16.003  46.663 172.013  0.00  0.00    -0.162 NA
BRANCH  60  61
ATOM     61  S1  SGN d 505     -17.457  45.943 171.590  0.00  0.00     0.227 S 
ATOM     62  O3S SGN d 505     -17.532  45.965 170.173  0.00  0.00    -0.577 OA
ATOM     63  O1S SGN d 505     -17.456  44.602 172.136  0.00  0.00    -0.577 OA
ATOM     64  O2S SGN d 505     -18.473  46.780 172.184  0.00  0.00    -0.577 OA
ENDBRANCH  60  61
ENDBRANCH  54  60
BRANCH  56  65
ATOM     65  O4  SGN d 505     -15.526  51.400 173.658  0.00  0.00    -0.326 OA
BRANCH  65  66
ATOM     66  C1  IDS d 506     -16.466  52.388 173.405  0.00  0.00     0.269 C 
ATOM     67  C2  IDS d 506     -15.737  53.667 172.970  0.00  0.00     0.226 C 
ATOM     68  C3  IDS d 506     -16.646  54.928 172.985  0.00  0.00     0.219 C 
ATOM     69  O3  IDS d 506     -17.379  54.973 171.764  0.00  0.00    -0.218 OA
ATOM     70  C4  IDS d 506     -17.647  54.958 174.160  0.00  0.00     0.223 C 
ATOM     71  O4  IDS d 506     -16.951  55.428 175.290  0.00  0.00    -0.217 OA
ATOM     72  C5  IDS d 506     -18.199  53.556 174.438  0.00  0.00     0.237 C 
ATOM     73  O5  IDS d 506     -17.153  52.655 174.601  0.00  0.00    -0.318 OA
BRANCH  67  74
ATOM     74  O2  IDS d 506     -14.656  53.931 173.841  0.00  0.00    -0.233 OA
BRANCH  74  75
ATOM     75  S   IDS d 506     -13.384  54.849 173.583  0.00  0.00     0.252 S 
ATOM     76  O1S IDS d 506     -12.263  54.045 173.961  0.00  0.00    -0.572 OA
ATOM     77  O2S IDS d 506     -13.342  55.169 172.184  0.00  0.00    -0.572 OA
ATOM     78  O3S IDS d 506     -13.565  56.009 174.429  0.00  0.00    -0.572 OA
ENDBRANCH  74  75
ENDBRANCH  67  74
BRANCH  72  79
ATOM     79  C6  IDS d 506     -19.163  53.424 175.602  0.00  0.00     0.217 C 
ATOM     80  O61 IDS d 506     -20.336  53.740 175.463  0.00  0.00    -0.646 OA
ATOM     81  O62 IDS d 506     -18.804  53.023 176.696  0.00  0.00    -0.646 OA
ENDBRANCH  72  79
ENDBRANCH  65  66
ENDBRANCH  56  65
BRANCH  58  82
ATOM     82  C6  SGN d 505     -14.882  50.339 176.118  0.00  0.00     0.198 C 
BRANCH  82  83
ATOM     83  O6  SGN d 505     -14.049  49.654 176.990  0.00  0.00    -0.235 OA
BRANCH  83  84
ATOM     84  S2  SGN d 505     -14.304  49.351 178.460  0.00  0.00     0.252 S 
ATOM     85  O6S SGN d 505     -13.018  49.005 179.050  0.00  0.00    -0.572 OA
ATOM     86  O4S SGN d 505     -14.853  50.575 178.998  0.00  0.00    -0.572 OA
ATOM     87  O5S SGN d 505     -15.222  48.239 178.446  0.00  0.00    -0.572 OA
ENDBRANCH  83  84
ENDBRANCH  82  83
ENDBRANCH  58  82
ENDBRANCH  52  53
ENDBRANCH   7  52
TORSDOF 27

ENDMDL
MODEL 14
REMARK VINA RESULT:       3.8      4.347      7.632
REMARK  27 active torsions:
REMARK  status: ('A' for Active; 'I' for Inactive)
REMARK    1  A    between atoms: C2_1  and  O2_78 
REMARK    2  A    between atoms: C1_3  and  O4_50 
REMARK    3  A    between atoms: O4_5  and  C4_58 
REMARK    4  A    between atoms: O4_5  and  C1_27 
REMARK    5  A    between atoms: C2_6  and  N_39 
REMARK    6  A    between atoms: S1_9  and  N_39 
REMARK    7  A    between atoms: C6_10  and  C5_52 
REMARK    8  A    between atoms: C2_12  and  N_73 
REMARK    9  A    between atoms: C2_19  and  O2_24 
REMARK   10  A    between atoms: C2_21  and  O2_44 
REMARK   11  A    between atoms: S2_23  and  O6_65 
REMARK   12  A    between atoms: O2_24  and  S_54 
REMARK   13  A    between atoms: C1_28  and  O4_60 
REMARK   14  A    between atoms: C5_29  and  C6_38 
REMARK   15  A    between atoms: C5_30  and  C6_33 
REMARK   16  A    between atoms: S1_34  and  N_73 
REMARK   17  A    between atoms: C5_41  and  C6_46 
REMARK   18  A    between atoms: S_43  and  O2_44 
REMARK   19  A    between atoms: C6_46  and  O6_72 
REMARK   20  A    between atoms: O4_50  and  C4_71 
REMARK   21  A    between atoms: C1_56  and  O4_64 
REMARK   22  A    between atoms: O4_60  and  C4_83 
REMARK   23  A    between atoms: C4_61  and  O4_64 
REMARK   24  A    between atoms: S2_63  and  O6_72 
REMARK   25  A    between atoms: O6_65  and  C6_67 
REMARK   26  A    between atoms: C6_67  and  C5_75 
REMARK   27  A    between atoms: S_76  and  O2_78 
ROOT
ATOM      1  C2  IDS d 504     -17.048  51.291 175.933  0.00  0.00     0.226 C 
ATOM      2  O3  IDS d 504     -18.727  49.535 175.598  0.00  0.00    -0.218 OA
ATOM      3  O5  IDS d 504     -16.693  51.542 173.536  0.00  0.00    -0.318 OA
ATOM      4  C5  IDS d 504     -17.143  50.237 173.254  0.00  0.00     0.234 C 
ATOM      5  C1  IDS d 504     -17.288  52.133 174.695  0.00  0.00     0.269 C 
ATOM      6  C3  IDS d 504     -17.325  49.759 175.681  0.00  0.00     0.216 C 
ATOM      7  C4  IDS d 504     -16.718  49.284 174.370  0.00  0.00     0.189 C 
ENDROOT
BRANCH   5   8
ATOM      8  O4  SGN d 503     -18.666  52.323 174.553  0.00  0.00    -0.326 OA
BRANCH   8   9
ATOM      9  C4  SGN d 503     -19.024  53.614 174.181  0.00  0.00     0.180 C 
ATOM     10  C3  SGN d 503     -18.270  54.601 175.070  0.00  0.00     0.210 C 
ATOM     11  C2  SGN d 503     -18.489  56.000 174.523  0.00  0.00     0.207 C 
ATOM     12  O3  SGN d 503     -18.799  54.507 176.379  0.00  0.00    -0.218 OA
ATOM     13  C1  SGN d 503     -18.129  56.088 173.033  0.00  0.00     0.263 C 
ATOM     14  O5  SGN d 503     -18.879  55.143 172.312  0.00  0.00    -0.327 OA
ATOM     15  C5  SGN d 503     -18.638  53.828 172.707  0.00  0.00     0.179 C 
BRANCH  11  16
ATOM     16  N   SGN d 503     -17.746  56.988 175.285  0.00  0.00    -0.162 NA
BRANCH  16  17
ATOM     17  S1  SGN d 503     -18.279  58.525 175.247  0.00  0.00     0.227 S 
ATOM     18  O1S SGN d 503     -19.079  58.706 176.443  0.00  0.00    -0.577 OA
ATOM     19  O2S SGN d 503     -17.117  59.412 175.224  0.00  0.00    -0.577 OA
ATOM     20  O3S SGN d 503     -19.073  58.571 174.039  0.00  0.00    -0.577 OA
ENDBRANCH  16  17
ENDBRANCH  11  16
BRANCH  13  21
ATOM     21  O4  IDS d 502     -16.753  55.908 172.839  0.00  0.00    -0.326 OA
BRANCH  21  22
ATOM     22  C4  IDS d 502     -16.055  57.067 172.465  0.00  0.00     0.189 C 
ATOM     23  C3  IDS d 502     -14.608  56.991 172.990  0.00  0.00     0.216 C 
ATOM     24  O3  IDS d 502     -13.979  58.241 172.785  0.00  0.00    -0.218 OA
ATOM     25  C2  IDS d 502     -13.807  55.926 172.236  0.00  0.00     0.229 C 
ATOM     26  C1  IDS d 502     -13.972  56.053 170.725  0.00  0.00     0.301 C 
ATOM     27  O1  IDS d 502     -13.248  57.180 170.305  0.00  0.00    -0.187 OA
ATOM     28  O5  IDS d 502     -15.329  56.117 170.363  0.00  0.00    -0.316 OA
ATOM     29  C5  IDS d 502     -16.048  57.187 170.942  0.00  0.00     0.234 C 
BRANCH  25  30
ATOM     30  O2  IDS d 502     -14.307  54.675 172.625  0.00  0.00    -0.232 OA
BRANCH  30  31
ATOM     31  S   IDS d 502     -13.721  53.701 173.699  0.00  0.00     0.252 S 
ATOM     32  O3S IDS d 502     -14.399  54.049 174.920  0.00  0.00    -0.572 OA
ATOM     33  O2S IDS d 502     -12.300  53.955 173.728  0.00  0.00    -0.572 OA
ATOM     34  O1S IDS d 502     -14.028  52.363 173.273  0.00  0.00    -0.572 OA
ENDBRANCH  30  31
ENDBRANCH  25  30
BRANCH  29  35
ATOM     35  C6  IDS d 502     -17.431  57.306 170.319  0.00  0.00     0.216 C 
ATOM     36  O61 IDS d 502     -18.159  58.233 170.581  0.00  0.00    -0.646 OA
ATOM     37  O62 IDS d 502     -17.839  56.471 169.535  0.00  0.00    -0.646 OA
ENDBRANCH  29  35
ENDBRANCH  21  22
ENDBRANCH  13  21
BRANCH  15  38
ATOM     38  C6  SGN d 503     -19.420  52.990 171.732  0.00  0.00     0.198 C 
BRANCH  38  39
ATOM     39  O6  SGN d 503     -19.755  53.814 170.636  0.00  0.00    -0.235 OA
BRANCH  39  40
ATOM     40  S2  SGN d 503     -21.074  53.742 169.822  0.00  0.00     0.252 S 
ATOM     41  O4S SGN d 503     -21.391  52.372 169.604  0.00  0.00    -0.572 OA
ATOM     42  O5S SGN d 503     -22.099  54.420 170.609  0.00  0.00    -0.572 OA
ATOM     43  O6S SGN d 503     -20.748  54.366 168.599  0.00  0.00    -0.572 OA
ENDBRANCH  39  40
ENDBRANCH  38  39
ENDBRANCH  15  38
ENDBRANCH   8   9
ENDBRANCH   5   8
BRANCH   1  44
ATOM     44  O2  IDS d 504     -15.702  51.492 176.358  0.00  0.00    -0.233 OA
BRANCH  44  45
ATOM     45  S   IDS d 504     -15.240  52.155 177.668  0.00  0.00     0.252 S 
ATOM     46  O3S IDS d 504     -15.824  53.443 177.613  0.00  0.00    -0.572 OA
ATOM     47  O2S IDS d 504     -13.806  52.143 177.678  0.00  0.00    -0.572 OA
ATOM     48  O1S IDS d 504     -15.776  51.375 178.722  0.00  0.00    -0.572 OA
ENDBRANCH  44  45
ENDBRANCH   1  44
BRANCH   4  49
ATOM     49  C6  IDS d 504     -16.716  49.815 171.838  0.00  0.00     0.216 C 
ATOM     50  O62 IDS d 504     -15.717  50.299 171.303  0.00  0.00    -0.646 OA
ATOM     51  O61 IDS d 504     -17.370  48.999 171.200  0.00  0.00    -0.646 OA
ENDBRANCH   4  49
BRANCH   7  52
ATOM     52  O4  IDS d 504     -15.303  49.268 174.486  0.00  0.00    -0.326 OA
BRANCH  52  53
ATOM     53  C1  SGN d 505     -14.782  48.033 174.897  0.00  0.00     0.263 C 
ATOM     54  C2  SGN d 505     -13.401  48.185 175.504  0.00  0.00     0.207 C 
ATOM     55  C3  SGN d 505     -12.383  48.639 174.440  0.00  0.00     0.210 C 
ATOM     56  C4  SGN d 505     -12.439  47.561 173.318  0.00  0.00     0.180 C 
ATOM     57  O3  SGN d 505     -11.093  48.674 175.035  0.00  0.00    -0.218 OA
ATOM     58  C5  SGN d 505     -13.844  47.546 172.810  0.00  0.00     0.179 C 
ATOM     59  O5  SGN d 505     -14.721  47.145 173.817  0.00  0.00    -0.327 OA
BRANCH  54  60
ATOM     60  N   SGN d 505     -13.487  49.047 176.707  0.00  0.00    -0.162 NA
BRANCH  60  61
ATOM     61  S1  SGN d 505     -13.816  48.300 178.171  0.00  0.00     0.227 S 
ATOM     62  O3S SGN d 505     -13.252  46.999 178.108  0.00  0.00    -0.577 OA
ATOM     63  O1S SGN d 505     -13.238  49.117 179.218  0.00  0.00    -0.577 OA
ATOM     64  O2S SGN d 505     -15.257  48.247 178.245  0.00  0.00    -0.577 OA
ENDBRANCH  60  61
ENDBRANCH  54  60
BRANCH  56  65
ATOM     65  O4  SGN d 505     -11.624  47.811 172.192  0.00  0.00    -0.326 OA
BRANCH  65  66
ATOM     66  C1  IDS d 506     -10.347  47.295 172.040  0.00  0.00     0.269 C 
ATOM     67  C2  IDS d 506      -9.773  47.774 170.699  0.00  0.00     0.226 C 
ATOM     68  C3  IDS d 506      -8.499  46.999 170.262  0.00  0.00     0.219 C 
ATOM     69  O3  IDS d 506      -7.371  47.580 170.911  0.00  0.00    -0.218 OA
ATOM     70  C4  IDS d 506      -8.540  45.494 170.603  0.00  0.00     0.223 C 
ATOM     71  O4  IDS d 506      -9.290  44.857 169.595  0.00  0.00    -0.217 OA
ATOM     72  C5  IDS d 506      -9.204  45.265 171.965  0.00  0.00     0.237 C 
ATOM     73  O5  IDS d 506     -10.442  45.893 172.005  0.00  0.00    -0.318 OA
BRANCH  67  74
ATOM     74  O2  IDS d 506     -10.730  47.601 169.671  0.00  0.00    -0.233 OA
BRANCH  74  75
ATOM     75  S   IDS d 506     -11.187  48.648 168.567  0.00  0.00     0.252 S 
ATOM     76  O1S IDS d 506      -9.996  49.352 168.205  0.00  0.00    -0.572 OA
ATOM     77  O2S IDS d 506     -11.713  47.916 167.449  0.00  0.00    -0.572 OA
ATOM     78  O3S IDS d 506     -12.172  49.488 169.213  0.00  0.00    -0.572 OA
ENDBRANCH  74  75
ENDBRANCH  67  74
BRANCH  72  79
ATOM     79  C6  IDS d 506      -9.357  43.822 172.411  0.00  0.00     0.217 C 
ATOM     80  O61 IDS d 506     -10.460  43.293 172.402  0.00  0.00    -0.646 OA
ATOM     81  O62 IDS d 506      -8.409  43.162 172.800  0.00  0.00    -0.646 OA
ENDBRANCH  72  79
ENDBRANCH  65  66
ENDBRANCH  56  65
BRANCH  58  82
ATOM     82  C6  SGN d 505     -14.040  46.590 171.678  0.00  0.00     0.198 C 
BRANCH  82  83
ATOM     83  O6  SGN d 505     -14.340  47.383 170.581  0.00  0.00    -0.235 OA
BRANCH  83  84
ATOM     84  S2  SGN d 505     -14.899  46.928 169.241  0.00  0.00     0.252 S 
ATOM     85  O6S SGN d 505     -13.922  46.017 168.661  0.00  0.00    -0.572 OA
ATOM     86  O4S SGN d 505     -16.147  46.274 169.567  0.00  0.00    -0.572 OA
ATOM     87  O5S SGN d 505     -15.042  48.142 168.477  0.00  0.00    -0.572 OA
ENDBRANCH  83  84
ENDBRANCH  82  83
ENDBRANCH  58  82
ENDBRANCH  52  53
ENDBRANCH   7  52
TORSDOF 27

ENDMDL
MODEL 15
REMARK VINA RESULT:       3.8      4.754      9.231
REMARK  27 active torsions:
REMARK  status: ('A' for Active; 'I' for Inactive)
REMARK    1  A    between atoms: C2_1  and  O2_78 
REMARK    2  A    between atoms: C1_3  and  O4_50 
REMARK    3  A    between atoms: O4_5  and  C4_58 
REMARK    4  A    between atoms: O4_5  and  C1_27 
REMARK    5  A    between atoms: C2_6  and  N_39 
REMARK    6  A    between atoms: S1_9  and  N_39 
REMARK    7  A    between atoms: C6_10  and  C5_52 
REMARK    8  A    between atoms: C2_12  and  N_73 
REMARK    9  A    between atoms: C2_19  and  O2_24 
REMARK   10  A    between atoms: C2_21  and  O2_44 
REMARK   11  A    between atoms: S2_23  and  O6_65 
REMARK   12  A    between atoms: O2_24  and  S_54 
REMARK   13  A    between atoms: C1_28  and  O4_60 
REMARK   14  A    between atoms: C5_29  and  C6_38 
REMARK   15  A    between atoms: C5_30  and  C6_33 
REMARK   16  A    between atoms: S1_34  and  N_73 
REMARK   17  A    between atoms: C5_41  and  C6_46 
REMARK   18  A    between atoms: S_43  and  O2_44 
REMARK   19  A    between atoms: C6_46  and  O6_72 
REMARK   20  A    between atoms: O4_50  and  C4_71 
REMARK   21  A    between atoms: C1_56  and  O4_64 
REMARK   22  A    between atoms: O4_60  and  C4_83 
REMARK   23  A    between atoms: C4_61  and  O4_64 
REMARK   24  A    between atoms: S2_63  and  O6_72 
REMARK   25  A    between atoms: O6_65  and  C6_67 
REMARK   26  A    between atoms: C6_67  and  C5_75 
REMARK   27  A    between atoms: S_76  and  O2_78 
ROOT
ATOM      1  C2  IDS d 504     -15.481  50.646 176.667  0.00  0.00     0.226 C 
ATOM      2  O3  IDS d 504     -14.209  51.942 178.315  0.00  0.00    -0.218 OA
ATOM      3  O5  IDS d 504     -13.670  50.755 175.041  0.00  0.00    -0.318 OA
ATOM      4  C5  IDS d 504     -13.127  51.925 175.609  0.00  0.00     0.234 C 
ATOM      5  C1  IDS d 504     -14.352  49.910 175.973  0.00  0.00     0.269 C 
ATOM      6  C3  IDS d 504     -15.046  52.075 177.173  0.00  0.00     0.216 C 
ATOM      7  C4  IDS d 504     -14.248  52.828 176.120  0.00  0.00     0.189 C 
ENDROOT
BRANCH   5   8
ATOM      8  O4  SGN d 503     -13.498  49.391 176.951  0.00  0.00    -0.326 OA
BRANCH   8   9
ATOM      9  C4  SGN d 503     -12.977  48.140 176.642  0.00  0.00     0.180 C 
ATOM     10  C3  SGN d 503     -14.056  47.328 175.930  0.00  0.00     0.210 C 
ATOM     11  C2  SGN d 503     -13.424  46.054 175.401  0.00  0.00     0.207 C 
ATOM     12  O3  SGN d 503     -15.062  47.010 176.874  0.00  0.00    -0.218 OA
ATOM     13  C1  SGN d 503     -12.186  46.350 174.542  0.00  0.00     0.263 C 
ATOM     14  O5  SGN d 503     -11.261  47.097 175.293  0.00  0.00    -0.327 OA
ATOM     15  C5  SGN d 503     -11.760  48.327 175.719  0.00  0.00     0.179 C 
BRANCH  11  16
ATOM     16  N   SGN d 503     -14.382  45.258 174.654  0.00  0.00    -0.162 NA
BRANCH  16  17
ATOM     17  S1  SGN d 503     -14.453  43.665 174.976  0.00  0.00     0.227 S 
ATOM     18  O1S SGN d 503     -13.740  43.473 176.225  0.00  0.00    -0.577 OA
ATOM     19  O2S SGN d 503     -15.860  43.282 175.083  0.00  0.00    -0.577 OA
ATOM     20  O3S SGN d 503     -13.769  43.068 173.851  0.00  0.00    -0.577 OA
ENDBRANCH  16  17
ENDBRANCH  11  16
BRANCH  13  21
ATOM     21  O4  IDS d 502     -12.544  47.015 173.361  0.00  0.00    -0.326 OA
BRANCH  21  22
ATOM     22  C4  IDS d 502     -12.043  46.435 172.184  0.00  0.00     0.189 C 
ATOM     23  C3  IDS d 502     -13.205  45.838 171.367  0.00  0.00     0.216 C 
ATOM     24  O3  IDS d 502     -12.673  45.085 170.294  0.00  0.00    -0.218 OA
ATOM     25  C2  IDS d 502     -14.088  46.943 170.780  0.00  0.00     0.229 C 
ATOM     26  C1  IDS d 502     -13.262  48.025 170.091  0.00  0.00     0.301 C 
ATOM     27  O1  IDS d 502     -12.779  47.496 168.885  0.00  0.00    -0.187 OA
ATOM     28  O5  IDS d 502     -12.232  48.492 170.927  0.00  0.00    -0.316 OA
ATOM     29  C5  IDS d 502     -11.323  47.500 171.359  0.00  0.00     0.234 C 
BRANCH  25  30
ATOM     30  O2  IDS d 502     -14.777  47.537 171.848  0.00  0.00    -0.232 OA
BRANCH  30  31
ATOM     31  S   IDS d 502     -16.317  47.775 171.979  0.00  0.00     0.252 S 
ATOM     32  O3S IDS d 502     -16.917  46.781 171.127  0.00  0.00    -0.572 OA
ATOM     33  O2S IDS d 502     -16.545  49.132 171.540  0.00  0.00    -0.572 OA
ATOM     34  O1S IDS d 502     -16.663  47.583 173.360  0.00  0.00    -0.572 OA
ENDBRANCH  30  31
ENDBRANCH  25  30
BRANCH  29  35
ATOM     35  C6  IDS d 502     -10.130  48.132 172.061  0.00  0.00     0.216 C 
ATOM     36  O61 IDS d 502      -9.298  47.455 172.615  0.00  0.00    -0.646 OA
ATOM     37  O62 IDS d 502      -9.980  49.338 172.078  0.00  0.00    -0.646 OA
ENDBRANCH  29  35
ENDBRANCH  21  22
ENDBRANCH  13  21
BRANCH  15  38
ATOM     38  C6  SGN d 503     -10.585  49.007 176.369  0.00  0.00     0.198 C 
BRANCH  38  39
ATOM     39  O6  SGN d 503      -9.875  49.687 175.357  0.00  0.00    -0.235 OA
BRANCH  39  40
ATOM     40  S2  SGN d 503      -8.386  50.118 175.432  0.00  0.00     0.252 S 
ATOM     41  O4S SGN d 503      -8.108  50.963 174.320  0.00  0.00    -0.572 OA
ATOM     42  O5S SGN d 503      -8.205  50.812 176.703  0.00  0.00    -0.572 OA
ATOM     43  O6S SGN d 503      -7.679  48.904 175.307  0.00  0.00    -0.572 OA
ENDBRANCH  39  40
ENDBRANCH  38  39
ENDBRANCH  15  38
ENDBRANCH   8   9
ENDBRANCH   5   8
BRANCH   1  44
ATOM     44  O2  IDS d 504     -16.574  50.750 175.758  0.00  0.00    -0.233 OA
BRANCH  44  45
ATOM     45  S   IDS d 504     -17.958  50.092 175.904  0.00  0.00     0.252 S 
ATOM     46  O3S IDS d 504     -18.639  50.944 176.806  0.00  0.00    -0.572 OA
ATOM     47  O2S IDS d 504     -17.755  48.754 176.375  0.00  0.00    -0.572 OA
ATOM     48  O1S IDS d 504     -18.547  50.108 174.615  0.00  0.00    -0.572 OA
ENDBRANCH  44  45
ENDBRANCH   1  44
BRANCH   4  49
ATOM     49  C6  IDS d 504     -12.147  52.593 174.630  0.00  0.00     0.216 C 
ATOM     50  O62 IDS d 504     -10.947  52.687 174.895  0.00  0.00    -0.646 OA
ATOM     51  O61 IDS d 504     -12.539  53.064 173.570  0.00  0.00    -0.646 OA
ENDBRANCH   4  49
BRANCH   7  52
ATOM     52  O4  IDS d 504     -15.109  53.191 175.050  0.00  0.00    -0.326 OA
BRANCH  52  53
ATOM     53  C1  SGN d 505     -15.762  54.417 175.240  0.00  0.00     0.263 C 
ATOM     54  C2  SGN d 505     -16.839  54.642 174.197  0.00  0.00     0.207 C 
ATOM     55  C3  SGN d 505     -16.218  54.808 172.797  0.00  0.00     0.210 C 
ATOM     56  C4  SGN d 505     -15.228  56.003 172.915  0.00  0.00     0.180 C 
ATOM     57  O3  SGN d 505     -17.257  55.110 171.875  0.00  0.00    -0.218 OA
ATOM     58  C5  SGN d 505     -14.224  55.625 173.955  0.00  0.00     0.179 C 
ATOM     59  O5  SGN d 505     -14.843  55.472 175.195  0.00  0.00    -0.327 OA
BRANCH  54  60
ATOM     60  N   SGN d 505     -17.864  53.578 174.314  0.00  0.00    -0.162 NA
BRANCH  60  61
ATOM     61  S1  SGN d 505     -19.353  54.004 174.953  0.00  0.00     0.227 S 
ATOM     62  O3S SGN d 505     -20.249  52.944 174.657  0.00  0.00    -0.577 OA
ATOM     63  O1S SGN d 505     -19.176  54.215 176.374  0.00  0.00    -0.577 OA
ATOM     64  O2S SGN d 505     -19.723  55.215 174.258  0.00  0.00    -0.577 OA
ENDBRANCH  60  61
ENDBRANCH  54  60
BRANCH  56  65
ATOM     65  O4  SGN d 505     -14.484  56.295 171.750  0.00  0.00    -0.326 OA
BRANCH  65  66
ATOM     66  C1  IDS d 506     -15.048  56.404 170.488  0.00  0.00     0.269 C 
ATOM     67  C2  IDS d 506     -13.928  56.352 169.438  0.00  0.00     0.226 C 
ATOM     68  C3  IDS d 506     -14.390  56.798 168.023  0.00  0.00     0.219 C 
ATOM     69  O3  IDS d 506     -15.002  55.686 167.375  0.00  0.00    -0.218 OA
ATOM     70  C4  IDS d 506     -15.395  57.970 168.039  0.00  0.00     0.223 C 
ATOM     71  O4  IDS d 506     -14.651  59.157 168.186  0.00  0.00    -0.217 OA
ATOM     72  C5  IDS d 506     -16.377  57.827 169.207  0.00  0.00     0.237 C 
ATOM     73  O5  IDS d 506     -15.681  57.655 170.397  0.00  0.00    -0.318 OA
BRANCH  67  74
ATOM     74  O2  IDS d 506     -12.869  57.210 169.813  0.00  0.00    -0.233 OA
BRANCH  74  75
ATOM     75  S   IDS d 506     -11.328  56.859 169.977  0.00  0.00     0.252 S 
ATOM     76  O1S IDS d 506     -10.673  58.123 170.120  0.00  0.00    -0.572 OA
ATOM     77  O2S IDS d 506     -11.176  56.063 171.162  0.00  0.00    -0.572 OA
ATOM     78  O3S IDS d 506     -10.960  56.159 168.766  0.00  0.00    -0.572 OA
ENDBRANCH  74  75
ENDBRANCH  67  74
BRANCH  72  79
ATOM     79  C6  IDS d 506     -17.397  58.938 169.376  0.00  0.00     0.217 C 
ATOM     80  O61 IDS d 506     -18.237  59.134 168.509  0.00  0.00    -0.646 OA
ATOM     81  O62 IDS d 506     -17.403  59.666 170.354  0.00  0.00    -0.646 OA
ENDBRANCH  72  79
ENDBRANCH  65  66
ENDBRANCH  56  65
BRANCH  58  82
ATOM     82  C6  SGN d 505     -13.163  56.661 174.141  0.00  0.00     0.198 C 
BRANCH  82  83
ATOM     83  O6  SGN d 505     -13.834  57.793 174.578  0.00  0.00    -0.235 OA
BRANCH  83  84
ATOM     84  S2  SGN d 505     -13.601  59.230 174.137  0.00  0.00     0.252 S 
ATOM     85  O6S SGN d 505     -13.362  59.199 172.701  0.00  0.00    -0.572 OA
ATOM     86  O4S SGN d 505     -14.820  59.924 174.485  0.00  0.00    -0.572 OA
ATOM     87  O5S SGN d 505     -12.440  59.653 174.880  0.00  0.00    -0.572 OA
ENDBRANCH  83  84
ENDBRANCH  82  83
ENDBRANCH  58  82
ENDBRANCH  52  53
ENDBRANCH   7  52
TORSDOF 27

ENDMDL
MODEL 16
REMARK VINA RESULT:       3.8      4.143      7.285
REMARK  27 active torsions:
REMARK  status: ('A' for Active; 'I' for Inactive)
REMARK    1  A    between atoms: C2_1  and  O2_78 
REMARK    2  A    between atoms: C1_3  and  O4_50 
REMARK    3  A    between atoms: O4_5  and  C4_58 
REMARK    4  A    between atoms: O4_5  and  C1_27 
REMARK    5  A    between atoms: C2_6  and  N_39 
REMARK    6  A    between atoms: S1_9  and  N_39 
REMARK    7  A    between atoms: C6_10  and  C5_52 
REMARK    8  A    between atoms: C2_12  and  N_73 
REMARK    9  A    between atoms: C2_19  and  O2_24 
REMARK   10  A    between atoms: C2_21  and  O2_44 
REMARK   11  A    between atoms: S2_23  and  O6_65 
REMARK   12  A    between atoms: O2_24  and  S_54 
REMARK   13  A    between atoms: C1_28  and  O4_60 
REMARK   14  A    between atoms: C5_29  and  C6_38 
REMARK   15  A    between atoms: C5_30  and  C6_33 
REMARK   16  A    between atoms: S1_34  and  N_73 
REMARK   17  A    between atoms: C5_41  and  C6_46 
REMARK   18  A    between atoms: S_43  and  O2_44 
REMARK   19  A    between atoms: C6_46  and  O6_72 
REMARK   20  A    between atoms: O4_50  and  C4_71 
REMARK   21  A    between atoms: C1_56  and  O4_64 
REMARK   22  A    between atoms: O4_60  and  C4_83 
REMARK   23  A    between atoms: C4_61  and  O4_64 
REMARK   24  A    between atoms: S2_63  and  O6_72 
REMARK   25  A    between atoms: O6_65  and  C6_67 
REMARK   26  A    between atoms: C6_67  and  C5_75 
REMARK   27  A    between atoms: S_76  and  O2_78 
ROOT
ATOM      1  C2  IDS d 504     -16.938  51.133 176.000  0.00  0.00     0.226 C 
ATOM      2  O3  IDS d 504     -18.588  49.360 175.618  0.00  0.00    -0.218 OA
ATOM      3  O5  IDS d 504     -16.574  51.443 173.611  0.00  0.00    -0.318 OA
ATOM      4  C5  IDS d 504     -17.004  50.137 173.298  0.00  0.00     0.234 C 
ATOM      5  C1  IDS d 504     -17.183  51.999 174.781  0.00  0.00     0.269 C 
ATOM      6  C3  IDS d 504     -17.190  49.603 175.713  0.00  0.00     0.216 C 
ATOM      7  C4  IDS d 504     -16.570  49.167 174.395  0.00  0.00     0.189 C 
ENDROOT
BRANCH   5   8
ATOM      8  O4  SGN d 503     -18.564  52.172 174.635  0.00  0.00    -0.326 OA
BRANCH   8   9
ATOM      9  C4  SGN d 503     -18.935  53.449 174.232  0.00  0.00     0.180 C 
ATOM     10  C3  SGN d 503     -18.233  54.464 175.131  0.00  0.00     0.210 C 
ATOM     11  C2  SGN d 503     -18.462  55.850 174.555  0.00  0.00     0.207 C 
ATOM     12  O3  SGN d 503     -18.805  54.378 176.422  0.00  0.00    -0.218 OA
ATOM     13  C1  SGN d 503     -18.052  55.924 173.077  0.00  0.00     0.263 C 
ATOM     14  O5  SGN d 503     -18.757  54.953 172.345  0.00  0.00    -0.327 OA
ATOM     15  C5  SGN d 503     -18.503  53.649 172.768  0.00  0.00     0.179 C 
BRANCH  11  16
ATOM     16  N   SGN d 503     -17.766  56.865 175.327  0.00  0.00    -0.162 NA
BRANCH  16  17
ATOM     17  S1  SGN d 503     -18.331  58.389 175.250  0.00  0.00     0.227 S 
ATOM     18  O1S SGN d 503     -19.065  58.486 174.002  0.00  0.00    -0.577 OA
ATOM     19  O2S SGN d 503     -19.191  58.617 176.410  0.00  0.00    -0.577 OA
ATOM     20  O3S SGN d 503     -17.128  59.189 175.247  0.00  0.00    -0.577 OA
ENDBRANCH  16  17
ENDBRANCH  11  16
BRANCH  13  21
ATOM     21  O4  IDS d 502     -16.667  55.770 172.933  0.00  0.00    -0.326 OA
BRANCH  21  22
ATOM     22  C4  IDS d 502     -15.973  56.950 172.621  0.00  0.00     0.189 C 
ATOM     23  C3  IDS d 502     -14.532  56.860 173.158  0.00  0.00     0.216 C 
ATOM     24  O3  IDS d 502     -13.909  58.122 173.017  0.00  0.00    -0.218 OA
ATOM     25  C2  IDS d 502     -13.714  55.836 172.365  0.00  0.00     0.229 C 
ATOM     26  C1  IDS d 502     -13.864  56.032 170.860  0.00  0.00     0.301 C 
ATOM     27  O1  IDS d 502     -13.144  57.181 170.500  0.00  0.00    -0.187 OA
ATOM     28  O5  IDS d 502     -15.217  56.102 170.485  0.00  0.00    -0.316 OA
ATOM     29  C5  IDS d 502     -15.950  57.140 171.106  0.00  0.00     0.234 C 
BRANCH  25  30
ATOM     30  O2  IDS d 502     -14.210  54.565 172.690  0.00  0.00    -0.232 OA
BRANCH  30  31
ATOM     31  S   IDS d 502     -13.614  53.535 173.705  0.00  0.00     0.252 S 
ATOM     32  O3S IDS d 502     -14.191  53.895 174.975  0.00  0.00    -0.572 OA
ATOM     33  O2S IDS d 502     -12.181  53.709 173.647  0.00  0.00    -0.572 OA
ATOM     34  O1S IDS d 502     -14.023  52.227 173.276  0.00  0.00    -0.572 OA
ENDBRANCH  30  31
ENDBRANCH  25  30
BRANCH  29  35
ATOM     35  C6  IDS d 502     -17.328  57.278 170.473  0.00  0.00     0.216 C 
ATOM     36  O61 IDS d 502     -17.736  56.468 169.676  0.00  0.00    -0.646 OA
ATOM     37  O62 IDS d 502     -18.057  58.208 170.758  0.00  0.00    -0.646 OA
ENDBRANCH  29  35
ENDBRANCH  21  22
ENDBRANCH  13  21
BRANCH  15  38
ATOM     38  C6  SGN d 503     -19.233  52.781 171.780  0.00  0.00     0.198 C 
BRANCH  38  39
ATOM     39  O6  SGN d 503     -20.511  52.511 172.314  0.00  0.00    -0.235 OA
BRANCH  39  40
ATOM     40  S2  SGN d 503     -21.304  51.189 172.136  0.00  0.00     0.252 S 
ATOM     41  O4S SGN d 503     -21.469  50.951 170.742  0.00  0.00    -0.572 OA
ATOM     42  O5S SGN d 503     -20.528  50.135 172.781  0.00  0.00    -0.572 OA
ATOM     43  O6S SGN d 503     -22.553  51.464 172.732  0.00  0.00    -0.572 OA
ENDBRANCH  39  40
ENDBRANCH  38  39
ENDBRANCH  15  38
ENDBRANCH   8   9
ENDBRANCH   5   8
BRANCH   1  44
ATOM     44  O2  IDS d 504     -15.596  51.344 176.436  0.00  0.00    -0.233 OA
BRANCH  44  45
ATOM     45  S   IDS d 504     -15.150  52.039 177.735  0.00  0.00     0.252 S 
ATOM     46  O3S IDS d 504     -15.705  53.336 177.627  0.00  0.00    -0.572 OA
ATOM     47  O2S IDS d 504     -13.718  51.998 177.780  0.00  0.00    -0.572 OA
ATOM     48  O1S IDS d 504     -15.727  51.304 178.801  0.00  0.00    -0.572 OA
ENDBRANCH  44  45
ENDBRANCH   1  44
BRANCH   4  49
ATOM     49  C6  IDS d 504     -16.564  49.753 171.875  0.00  0.00     0.216 C 
ATOM     50  O62 IDS d 504     -15.583  50.282 171.347  0.00  0.00    -0.646 OA
ATOM     51  O61 IDS d 504     -17.189  48.925 171.225  0.00  0.00    -0.646 OA
ENDBRANCH   4  49
BRANCH   7  52
ATOM     52  O4  IDS d 504     -15.155  49.169 174.518  0.00  0.00    -0.326 OA
BRANCH  52  53
ATOM     53  C1  SGN d 505     -14.618  47.935 174.909  0.00  0.00     0.263 C 
ATOM     54  C2  SGN d 505     -13.237  48.094 175.514  0.00  0.00     0.207 C 
ATOM     55  C3  SGN d 505     -12.228  48.576 174.453  0.00  0.00     0.210 C 
ATOM     56  C4  SGN d 505     -12.275  47.514 173.316  0.00  0.00     0.180 C 
ATOM     57  O3  SGN d 505     -10.936  48.617 175.044  0.00  0.00    -0.218 OA
ATOM     58  C5  SGN d 505     -13.681  47.489 172.812  0.00  0.00     0.179 C 
ATOM     59  O5  SGN d 505     -14.550  47.063 173.816  0.00  0.00    -0.327 OA
BRANCH  54  60
ATOM     60  N   SGN d 505     -13.329  48.937 176.729  0.00  0.00    -0.162 NA
BRANCH  60  61
ATOM     61  S1  SGN d 505     -13.766  48.184 178.161  0.00  0.00     0.227 S 
ATOM     62  O3S SGN d 505     -15.184  48.222 178.233  0.00  0.00    -0.577 OA
ATOM     63  O1S SGN d 505     -13.238  46.836 178.126  0.00  0.00    -0.577 OA
ATOM     64  O2S SGN d 505     -13.165  48.985 179.201  0.00  0.00    -0.577 OA
ENDBRANCH  60  61
ENDBRANCH  54  60
BRANCH  56  65
ATOM     65  O4  SGN d 505     -11.467  47.790 172.191  0.00  0.00    -0.326 OA
BRANCH  65  66
ATOM     66  C1  IDS d 506     -10.207  47.244 171.999  0.00  0.00     0.269 C 
ATOM     67  C2  IDS d 506      -9.659  47.723 170.647  0.00  0.00     0.226 C 
ATOM     68  C3  IDS d 506      -8.417  46.922 170.168  0.00  0.00     0.219 C 
ATOM     69  O3  IDS d 506      -7.257  47.468 170.792  0.00  0.00    -0.218 OA
ATOM     70  C4  IDS d 506      -8.486  45.415 170.495  0.00  0.00     0.223 C 
ATOM     71  O4  IDS d 506      -9.279  44.807 169.502  0.00  0.00    -0.217 OA
ATOM     72  C5  IDS d 506      -9.118  45.187 171.872  0.00  0.00     0.237 C 
ATOM     73  O5  IDS d 506     -10.339  45.846 171.952  0.00  0.00    -0.318 OA
BRANCH  67  74
ATOM     74  O2  IDS d 506     -10.647  47.585 169.645  0.00  0.00    -0.233 OA
BRANCH  74  75
ATOM     75  S   IDS d 506     -11.126  48.663 168.581  0.00  0.00     0.252 S 
ATOM     76  O1S IDS d 506      -9.960  49.435 168.282  0.00  0.00    -0.572 OA
ATOM     77  O2S IDS d 506     -11.594  47.964 167.417  0.00  0.00    -0.572 OA
ATOM     78  O3S IDS d 506     -12.162  49.427 169.243  0.00  0.00    -0.572 OA
ENDBRANCH  74  75
ENDBRANCH  67  74
BRANCH  72  79
ATOM     79  C6  IDS d 506      -9.295  43.744 172.308  0.00  0.00     0.217 C 
ATOM     80  O61 IDS d 506      -8.337  43.111 172.731  0.00  0.00    -0.646 OA
ATOM     81  O62 IDS d 506     -10.371  43.175 172.238  0.00  0.00    -0.646 OA
ENDBRANCH  72  79
ENDBRANCH  65  66
ENDBRANCH  56  65
BRANCH  58  82
ATOM     82  C6  SGN d 505     -13.870  46.547 171.667  0.00  0.00     0.198 C 
BRANCH  82  83
ATOM     83  O6  SGN d 505     -14.224  47.349 170.592  0.00  0.00    -0.235 OA
BRANCH  83  84
ATOM     84  S2  SGN d 505     -14.810  46.900 169.262  0.00  0.00     0.252 S 
ATOM     85  O6S SGN d 505     -14.987  48.097 168.451  0.00  0.00    -0.572 OA
ATOM     86  O4S SGN d 505     -13.826  45.994 168.713  0.00  0.00    -0.572 OA
ATOM     87  O5S SGN d 505     -16.064  46.279 169.610  0.00  0.00    -0.572 OA
ENDBRANCH  83  84
ENDBRANCH  82  83
ENDBRANCH  58  82
ENDBRANCH  52  53
ENDBRANCH   7  52
TORSDOF 27

ENDMDL
MODEL 17
REMARK VINA RESULT:       3.9      3.979     10.305
REMARK  27 active torsions:
REMARK  status: ('A' for Active; 'I' for Inactive)
REMARK    1  A    between atoms: C2_1  and  O2_78 
REMARK    2  A    between atoms: C1_3  and  O4_50 
REMARK    3  A    between atoms: O4_5  and  C4_58 
REMARK    4  A    between atoms: O4_5  and  C1_27 
REMARK    5  A    between atoms: C2_6  and  N_39 
REMARK    6  A    between atoms: S1_9  and  N_39 
REMARK    7  A    between atoms: C6_10  and  C5_52 
REMARK    8  A    between atoms: C2_12  and  N_73 
REMARK    9  A    between atoms: C2_19  and  O2_24 
REMARK   10  A    between atoms: C2_21  and  O2_44 
REMARK   11  A    between atoms: S2_23  and  O6_65 
REMARK   12  A    between atoms: O2_24  and  S_54 
REMARK   13  A    between atoms: C1_28  and  O4_60 
REMARK   14  A    between atoms: C5_29  and  C6_38 
REMARK   15  A    between atoms: C5_30  and  C6_33 
REMARK   16  A    between atoms: S1_34  and  N_73 
REMARK   17  A    between atoms: C5_41  and  C6_46 
REMARK   18  A    between atoms: S_43  and  O2_44 
REMARK   19  A    between atoms: C6_46  and  O6_72 
REMARK   20  A    between atoms: O4_50  and  C4_71 
REMARK   21  A    between atoms: C1_56  and  O4_64 
REMARK   22  A    between atoms: O4_60  and  C4_83 
REMARK   23  A    between atoms: C4_61  and  O4_64 
REMARK   24  A    between atoms: S2_63  and  O6_72 
REMARK   25  A    between atoms: O6_65  and  C6_67 
REMARK   26  A    between atoms: C6_67  and  C5_75 
REMARK   27  A    between atoms: S_76  and  O2_78 
ROOT
ATOM      1  C2  IDS d 504     -14.083  50.478 175.722  0.00  0.00     0.226 C 
ATOM      2  O3  IDS d 504     -12.397  51.508 174.268  0.00  0.00    -0.218 OA
ATOM      3  O5  IDS d 504     -15.371  49.670 173.819  0.00  0.00    -0.318 OA
ATOM      4  C5  IDS d 504     -14.855  50.654 172.952  0.00  0.00     0.234 C 
ATOM      5  C1  IDS d 504     -14.482  49.288 174.873  0.00  0.00     0.269 C 
ATOM      6  C3  IDS d 504     -13.675  51.729 174.852  0.00  0.00     0.216 C 
ATOM      7  C4  IDS d 504     -14.653  51.965 173.711  0.00  0.00     0.189 C 
ENDROOT
BRANCH   5   8
ATOM      8  O4  SGN d 503     -13.317  48.677 174.397  0.00  0.00    -0.326 OA
BRANCH   8   9
ATOM      9  C4  SGN d 503     -13.460  47.322 174.123  0.00  0.00     0.180 C 
ATOM     10  C3  SGN d 503     -14.317  46.693 175.219  0.00  0.00     0.210 C 
ATOM     11  C2  SGN d 503     -14.655  45.272 174.806  0.00  0.00     0.207 C 
ATOM     12  O3  SGN d 503     -13.562  46.681 176.415  0.00  0.00    -0.218 OA
ATOM     13  C1  SGN d 503     -15.283  45.224 173.406  0.00  0.00     0.263 C 
ATOM     14  O5  SGN d 503     -14.412  45.824 172.479  0.00  0.00    -0.327 OA
ATOM     15  C5  SGN d 503     -14.149  47.164 172.756  0.00  0.00     0.179 C 
BRANCH  11  16
ATOM     16  N   SGN d 503     -15.525  44.632 175.776  0.00  0.00    -0.162 NA
BRANCH  16  17
ATOM     17  S1  SGN d 503     -15.186  43.096 176.193  0.00  0.00     0.227 S 
ATOM     18  O1S SGN d 503     -13.802  42.872 175.823  0.00  0.00    -0.577 OA
ATOM     19  O2S SGN d 503     -15.399  42.956 177.633  0.00  0.00    -0.577 OA
ATOM     20  O3S SGN d 503     -16.106  42.323 175.389  0.00  0.00    -0.577 OA
ENDBRANCH  16  17
ENDBRANCH  11  16
BRANCH  13  21
ATOM     21  O4  IDS d 502     -16.542  45.840 173.400  0.00  0.00    -0.326 OA
BRANCH  21  22
ATOM     22  C4  IDS d 502     -17.586  45.038 172.911  0.00  0.00     0.189 C 
ATOM     23  C3  IDS d 502     -18.572  44.720 174.051  0.00  0.00     0.216 C 
ATOM     24  O3  IDS d 502     -19.501  43.755 173.599  0.00  0.00    -0.218 OA
ATOM     25  C2  IDS d 502     -19.350  45.971 174.468  0.00  0.00     0.229 C 
ATOM     26  C1  IDS d 502     -19.925  46.711 173.264  0.00  0.00     0.301 C 
ATOM     27  O1  IDS d 502     -21.004  45.962 172.772  0.00  0.00    -0.187 OA
ATOM     28  O5  IDS d 502     -18.940  46.944 172.289  0.00  0.00    -0.316 OA
ATOM     29  C5  IDS d 502     -18.312  45.779 171.790  0.00  0.00     0.234 C 
BRANCH  25  30
ATOM     30  O2  IDS d 502     -18.447  46.828 175.114  0.00  0.00    -0.232 OA
BRANCH  30  31
ATOM     31  S   IDS d 502     -18.543  47.401 176.567  0.00  0.00     0.252 S 
ATOM     32  O3S IDS d 502     -17.297  47.035 177.189  0.00  0.00    -0.572 OA
ATOM     33  O2S IDS d 502     -19.698  46.773 177.163  0.00  0.00    -0.572 OA
ATOM     34  O1S IDS d 502     -18.693  48.825 176.454  0.00  0.00    -0.572 OA
ENDBRANCH  30  31
ENDBRANCH  25  30
BRANCH  29  35
ATOM     35  C6  IDS d 502     -17.436  46.112 170.591  0.00  0.00     0.216 C 
ATOM     36  O61 IDS d 502     -16.664  45.304 170.135  0.00  0.00    -0.646 OA
ATOM     37  O62 IDS d 502     -17.493  47.202 170.056  0.00  0.00    -0.646 OA
ENDBRANCH  29  35
ENDBRANCH  21  22
ENDBRANCH  13  21
BRANCH  15  38
ATOM     38  C6  SGN d 503     -13.328  47.638 171.587  0.00  0.00     0.198 C 
BRANCH  38  39
ATOM     39  O6  SGN d 503     -14.183  47.706 170.467  0.00  0.00    -0.235 OA
BRANCH  39  40
ATOM     40  S2  SGN d 503     -13.795  47.335 169.011  0.00  0.00     0.252 S 
ATOM     41  O4S SGN d 503     -13.769  45.916 168.903  0.00  0.00    -0.572 OA
ATOM     42  O5S SGN d 503     -14.799  47.931 168.135  0.00  0.00    -0.572 OA
ATOM     43  O6S SGN d 503     -12.491  47.856 168.868  0.00  0.00    -0.572 OA
ENDBRANCH  39  40
ENDBRANCH  38  39
ENDBRANCH  15  38
ENDBRANCH   8   9
ENDBRANCH   5   8
BRANCH   1  44
ATOM     44  O2  IDS d 504     -15.174  50.803 176.580  0.00  0.00    -0.233 OA
BRANCH  44  45
ATOM     45  S   IDS d 504     -15.085  51.279 178.042  0.00  0.00     0.252 S 
ATOM     46  O3S IDS d 504     -14.682  50.121 178.747  0.00  0.00    -0.572 OA
ATOM     47  O2S IDS d 504     -16.372  51.792 178.410  0.00  0.00    -0.572 OA
ATOM     48  O1S IDS d 504     -14.092  52.290 178.073  0.00  0.00    -0.572 OA
ENDBRANCH  44  45
ENDBRANCH   1  44
BRANCH   4  49
ATOM     49  C6  IDS d 504     -15.719  50.761 171.684  0.00  0.00     0.216 C 
ATOM     50  O62 IDS d 504     -16.753  50.101 171.561  0.00  0.00    -0.646 OA
ATOM     51  O61 IDS d 504     -15.389  51.490 170.758  0.00  0.00    -0.646 OA
ENDBRANCH   4  49
BRANCH   7  52
ATOM     52  O4  IDS d 504     -15.890  52.419 174.239  0.00  0.00    -0.326 OA
BRANCH  52  53
ATOM     53  C1  SGN d 505     -16.260  53.697 173.798  0.00  0.00     0.263 C 
ATOM     54  C2  SGN d 505     -16.847  54.527 174.923  0.00  0.00     0.207 C 
ATOM     55  C3  SGN d 505     -18.190  53.935 175.395  0.00  0.00     0.210 C 
ATOM     56  C4  SGN d 505     -19.098  53.894 174.132  0.00  0.00     0.180 C 
ATOM     57  O3  SGN d 505     -18.742  54.799 176.380  0.00  0.00    -0.218 OA
ATOM     58  C5  SGN d 505     -18.402  53.029 173.133  0.00  0.00     0.179 C 
ATOM     59  O5  SGN d 505     -17.188  53.604 172.755  0.00  0.00    -0.327 OA
BRANCH  54  60
ATOM     60  N   SGN d 505     -15.827  54.708 175.982  0.00  0.00    -0.162 NA
BRANCH  60  61
ATOM     61  S1  SGN d 505     -15.399  56.277 176.384  0.00  0.00     0.227 S 
ATOM     62  O3S SGN d 505     -14.074  56.478 175.916  0.00  0.00    -0.577 OA
ATOM     63  O1S SGN d 505     -16.359  57.166 175.763  0.00  0.00    -0.577 OA
ATOM     64  O2S SGN d 505     -15.460  56.321 177.827  0.00  0.00    -0.577 OA
ENDBRANCH  60  61
ENDBRANCH  54  60
BRANCH  56  65
ATOM     65  O4  SGN d 505     -20.374  53.318 174.318  0.00  0.00    -0.326 OA
BRANCH  65  66
ATOM     66  C1  IDS d 506     -21.411  53.950 174.987  0.00  0.00     0.269 C 
ATOM     67  C2  IDS d 506     -22.660  53.058 174.923  0.00  0.00     0.226 C 
ATOM     68  C3  IDS d 506     -23.964  53.795 175.335  0.00  0.00     0.219 C 
ATOM     69  O3  IDS d 506     -24.065  53.775 176.757  0.00  0.00    -0.218 OA
ATOM     70  C4  IDS d 506     -24.025  55.262 174.860  0.00  0.00     0.223 C 
ATOM     71  O4  IDS d 506     -24.441  55.249 173.514  0.00  0.00    -0.217 OA
ATOM     72  C5  IDS d 506     -22.648  55.926 174.969  0.00  0.00     0.237 C 
ATOM     73  O5  IDS d 506     -21.693  55.153 174.318  0.00  0.00    -0.318 OA
BRANCH  67  74
ATOM     74  O2  IDS d 506     -22.855  52.587 173.604  0.00  0.00    -0.233 OA
BRANCH  74  75
ATOM     75  S   IDS d 506     -23.005  51.085 173.107  0.00  0.00     0.252 S 
ATOM     76  O1S IDS d 506     -21.718  50.495 173.314  0.00  0.00    -0.572 OA
ATOM     77  O2S IDS d 506     -24.003  50.445 173.917  0.00  0.00    -0.572 OA
ATOM     78  O3S IDS d 506     -23.373  51.174 171.711  0.00  0.00    -0.572 OA
ENDBRANCH  74  75
ENDBRANCH  67  74
BRANCH  72  79
ATOM     79  C6  IDS d 506     -22.546  57.361 174.489  0.00  0.00     0.217 C 
ATOM     80  O61 IDS d 506     -21.799  57.645 173.562  0.00  0.00    -0.646 OA
ATOM     81  O62 IDS d 506     -23.180  58.263 175.009  0.00  0.00    -0.646 OA
ENDBRANCH  72  79
ENDBRANCH  65  66
ENDBRANCH  56  65
BRANCH  58  82
ATOM     82  C6  SGN d 505     -19.188  52.847 171.876  0.00  0.00     0.198 C 
BRANCH  82  83
ATOM     83  O6  SGN d 505     -19.077  54.053 171.200  0.00  0.00    -0.235 OA
BRANCH  83  84
ATOM     84  S2  SGN d 505     -20.207  54.895 170.626  0.00  0.00     0.252 S 
ATOM     85  O6S SGN d 505     -20.070  56.231 171.191  0.00  0.00    -0.572 OA
ATOM     86  O4S SGN d 505     -19.995  54.870 169.197  0.00  0.00    -0.572 OA
ATOM     87  O5S SGN d 505     -21.411  54.232 171.064  0.00  0.00    -0.572 OA
ENDBRANCH  83  84
ENDBRANCH  82  83
ENDBRANCH  58  82
ENDBRANCH  52  53
ENDBRANCH   7  52
TORSDOF 27

ENDMDL
MODEL 18
REMARK VINA RESULT:       4.0      4.199     10.404
REMARK  27 active torsions:
REMARK  status: ('A' for Active; 'I' for Inactive)
REMARK    1  A    between atoms: C2_1  and  O2_78 
REMARK    2  A    between atoms: C1_3  and  O4_50 
REMARK    3  A    between atoms: O4_5  and  C4_58 
REMARK    4  A    between atoms: O4_5  and  C1_27 
REMARK    5  A    between atoms: C2_6  and  N_39 
REMARK    6  A    between atoms: S1_9  and  N_39 
REMARK    7  A    between atoms: C6_10  and  C5_52 
REMARK    8  A    between atoms: C2_12  and  N_73 
REMARK    9  A    between atoms: C2_19  and  O2_24 
REMARK   10  A    between atoms: C2_21  and  O2_44 
REMARK   11  A    between atoms: S2_23  and  O6_65 
REMARK   12  A    between atoms: O2_24  and  S_54 
REMARK   13  A    between atoms: C1_28  and  O4_60 
REMARK   14  A    between atoms: C5_29  and  C6_38 
REMARK   15  A    between atoms: C5_30  and  C6_33 
REMARK   16  A    between atoms: S1_34  and  N_73 
REMARK   17  A    between atoms: C5_41  and  C6_46 
REMARK   18  A    between atoms: S_43  and  O2_44 
REMARK   19  A    between atoms: C6_46  and  O6_72 
REMARK   20  A    between atoms: O4_50  and  C4_71 
REMARK   21  A    between atoms: C1_56  and  O4_64 
REMARK   22  A    between atoms: O4_60  and  C4_83 
REMARK   23  A    between atoms: C4_61  and  O4_64 
REMARK   24  A    between atoms: S2_63  and  O6_72 
REMARK   25  A    between atoms: O6_65  and  C6_67 
REMARK   26  A    between atoms: C6_67  and  C5_75 
REMARK   27  A    between atoms: S_76  and  O2_78 
ROOT
ATOM      1  C2  IDS d 504     -14.671  50.262 175.885  0.00  0.00     0.226 C 
ATOM      2  O3  IDS d 504     -13.344  50.740 173.880  0.00  0.00    -0.218 OA
ATOM      3  O5  IDS d 504     -16.396  49.128 174.591  0.00  0.00    -0.318 OA
ATOM      4  C5  IDS d 504     -16.067  49.816 173.405  0.00  0.00     0.234 C 
ATOM      5  C1  IDS d 504     -15.296  48.940 175.487  0.00  0.00     0.269 C 
ATOM      6  C3  IDS d 504     -14.441  51.215 174.650  0.00  0.00     0.216 C 
ATOM      7  C4  IDS d 504     -15.651  51.249 173.730  0.00  0.00     0.189 C 
ENDROOT
BRANCH   5   8
ATOM      8  O4  SGN d 503     -14.296  48.127 174.945  0.00  0.00    -0.326 OA
BRANCH   8   9
ATOM      9  C4  SGN d 503     -14.616  46.774 174.922  0.00  0.00     0.180 C 
ATOM     10  C3  SGN d 503     -15.716  46.519 175.950  0.00  0.00     0.210 C 
ATOM     11  C2  SGN d 503     -16.217  45.098 175.772  0.00  0.00     0.207 C 
ATOM     12  O3  SGN d 503     -15.157  46.675 177.241  0.00  0.00    -0.218 OA
ATOM     13  C1  SGN d 503     -16.632  44.822 174.320  0.00  0.00     0.263 C 
ATOM     14  O5  SGN d 503     -15.549  45.085 173.463  0.00  0.00    -0.327 OA
ATOM     15  C5  SGN d 503     -15.114  46.408 173.513  0.00  0.00     0.179 C 
BRANCH  11  16
ATOM     16  N   SGN d 503     -17.313  44.805 176.678  0.00  0.00    -0.162 NA
BRANCH  16  17
ATOM     17  S1  SGN d 503     -17.469  43.272 177.202  0.00  0.00     0.227 S 
ATOM     18  O1S SGN d 503     -18.425  43.312 178.292  0.00  0.00    -0.577 OA
ATOM     19  O2S SGN d 503     -17.942  42.454 176.086  0.00  0.00    -0.577 OA
ATOM     20  O3S SGN d 503     -16.135  42.937 177.648  0.00  0.00    -0.577 OA
ENDBRANCH  16  17
ENDBRANCH  11  16
BRANCH  13  21
ATOM     21  O4  IDS d 502     -17.759  45.577 173.968  0.00  0.00    -0.326 OA
BRANCH  21  22
ATOM     22  C4  IDS d 502     -18.823  44.833 173.434  0.00  0.00     0.189 C 
ATOM     23  C3  IDS d 502     -19.995  44.815 174.435  0.00  0.00     0.216 C 
ATOM     24  O3  IDS d 502     -20.975  43.903 173.978  0.00  0.00    -0.218 OA
ATOM     25  C2  IDS d 502     -20.646  46.197 174.542  0.00  0.00     0.229 C 
ATOM     26  C1  IDS d 502     -20.937  46.797 173.170  0.00  0.00     0.301 C 
ATOM     27  O1  IDS d 502     -22.028  46.107 172.620  0.00  0.00    -0.187 OA
ATOM     28  O5  IDS d 502     -19.801  46.758 172.343  0.00  0.00    -0.316 OA
ATOM     29  C5  IDS d 502     -19.275  45.465 172.119  0.00  0.00     0.234 C 
BRANCH  25  30
ATOM     30  O2  IDS d 502     -19.734  47.037 175.199  0.00  0.00    -0.232 OA
BRANCH  30  31
ATOM     31  S   IDS d 502     -20.022  48.028 176.374  0.00  0.00     0.252 S 
ATOM     32  O3S IDS d 502     -19.483  47.379 177.542  0.00  0.00    -0.572 OA
ATOM     33  O2S IDS d 502     -21.456  48.194 176.409  0.00  0.00    -0.572 OA
ATOM     34  O1S IDS d 502     -19.337  49.255 176.074  0.00  0.00    -0.572 OA
ENDBRANCH  30  31
ENDBRANCH  25  30
BRANCH  29  35
ATOM     35  C6  IDS d 502     -18.200  45.500 171.042  0.00  0.00     0.216 C 
ATOM     36  O61 IDS d 502     -17.863  44.498 170.460  0.00  0.00    -0.646 OA
ATOM     37  O62 IDS d 502     -17.654  46.542 170.736  0.00  0.00    -0.646 OA
ENDBRANCH  29  35
ENDBRANCH  21  22
ENDBRANCH  13  21
BRANCH  15  38
ATOM     38  C6  SGN d 503     -14.064  46.502 172.439  0.00  0.00     0.198 C 
BRANCH  38  39
ATOM     39  O6  SGN d 503     -13.833  45.197 171.955  0.00  0.00    -0.235 OA
BRANCH  39  40
ATOM     40  S2  SGN d 503     -13.856  44.770 170.463  0.00  0.00     0.252 S 
ATOM     41  O4S SGN d 503     -12.513  44.701 169.996  0.00  0.00    -0.572 OA
ATOM     42  O5S SGN d 503     -14.524  43.473 170.400  0.00  0.00    -0.572 OA
ATOM     43  O6S SGN d 503     -14.539  45.826 169.822  0.00  0.00    -0.572 OA
ENDBRANCH  39  40
ENDBRANCH  38  39
ENDBRANCH  15  38
ENDBRANCH   8   9
ENDBRANCH   5   8
BRANCH   1  44
ATOM     44  O2  IDS d 504     -15.520  50.887 176.846  0.00  0.00    -0.233 OA
BRANCH  44  45
ATOM     45  S   IDS d 504     -15.119  51.366 178.253  0.00  0.00     0.252 S 
ATOM     46  O3S IDS d 504     -14.106  52.322 178.005  0.00  0.00    -0.572 OA
ATOM     47  O2S IDS d 504     -14.695  50.217 178.998  0.00  0.00    -0.572 OA
ATOM     48  O1S IDS d 504     -16.277  51.957 178.819  0.00  0.00    -0.572 OA
ENDBRANCH  44  45
ENDBRANCH   1  44
BRANCH   4  49
ATOM     49  C6  IDS d 504     -17.201  49.683 172.375  0.00  0.00     0.216 C 
ATOM     50  O62 IDS d 504     -17.003  49.904 171.178  0.00  0.00    -0.646 OA
ATOM     51  O61 IDS d 504     -18.333  49.371 172.721  0.00  0.00    -0.646 OA
ENDBRANCH   4  49
BRANCH   7  52
ATOM     52  O4  IDS d 504     -16.715  51.932 174.379  0.00  0.00    -0.326 OA
BRANCH  52  53
ATOM     53  C1  SGN d 505     -16.982  53.201 173.846  0.00  0.00     0.263 C 
ATOM     54  C2  SGN d 505     -17.475  54.159 174.912  0.00  0.00     0.207 C 
ATOM     55  C3  SGN d 505     -18.854  53.723 175.444  0.00  0.00     0.210 C 
ATOM     56  C4  SGN d 505     -19.787  53.667 174.199  0.00  0.00     0.180 C 
ATOM     57  O3  SGN d 505     -19.313  54.702 176.367  0.00  0.00    -0.218 OA
ATOM     58  C5  SGN d 505     -19.185  52.672 173.259  0.00  0.00     0.179 C 
ATOM     59  O5  SGN d 505     -17.934  53.110 172.824  0.00  0.00    -0.327 OA
BRANCH  54  60
ATOM     60  N   SGN d 505     -16.424  54.330 175.942  0.00  0.00    -0.162 NA
BRANCH  60  61
ATOM     61  S1  SGN d 505     -15.827  55.876 176.190  0.00  0.00     0.227 S 
ATOM     62  O3S SGN d 505     -15.375  56.351 174.931  0.00  0.00    -0.577 OA
ATOM     63  O1S SGN d 505     -16.898  56.675 176.745  0.00  0.00    -0.577 OA
ATOM     64  O2S SGN d 505     -14.729  55.707 177.113  0.00  0.00    -0.577 OA
ENDBRANCH  60  61
ENDBRANCH  54  60
BRANCH  56  65
ATOM     65  O4  SGN d 505     -21.103  53.218 174.443  0.00  0.00    -0.326 OA
BRANCH  65  66
ATOM     66  C1  IDS d 506     -22.064  53.977 175.094  0.00  0.00     0.269 C 
ATOM     67  C2  IDS d 506     -23.258  53.076 175.440  0.00  0.00     0.226 C 
ATOM     68  C3  IDS d 506     -24.526  53.870 175.862  0.00  0.00     0.219 C 
ATOM     69  O3  IDS d 506     -24.416  54.195 177.245  0.00  0.00    -0.218 OA
ATOM     70  C4  IDS d 506     -24.734  55.176 175.065  0.00  0.00     0.223 C 
ATOM     71  O4  IDS d 506     -25.341  54.828 173.843  0.00  0.00    -0.217 OA
ATOM     72  C5  IDS d 506     -23.393  55.868 174.798  0.00  0.00     0.237 C 
ATOM     73  O5  IDS d 506     -22.504  54.976 174.211  0.00  0.00    -0.318 OA
BRANCH  67  74
ATOM     74  O2  IDS d 506     -23.619  52.295 174.318  0.00  0.00    -0.233 OA
BRANCH  74  75
ATOM     75  S   IDS d 506     -23.760  50.715 174.222  0.00  0.00     0.252 S 
ATOM     76  O1S IDS d 506     -24.895  50.493 173.380  0.00  0.00    -0.572 OA
ATOM     77  O2S IDS d 506     -22.564  50.195 173.624  0.00  0.00    -0.572 OA
ATOM     78  O3S IDS d 506     -23.963  50.262 175.582  0.00  0.00    -0.572 OA
ENDBRANCH  74  75
ENDBRANCH  67  74
BRANCH  72  79
ATOM     79  C6  IDS d 506     -23.440  57.145 173.980  0.00  0.00     0.217 C 
ATOM     80  O61 IDS d 506     -23.060  57.141 172.817  0.00  0.00    -0.646 OA
ATOM     81  O62 IDS d 506     -23.834  58.199 174.449  0.00  0.00    -0.646 OA
ENDBRANCH  72  79
ENDBRANCH  65  66
ENDBRANCH  56  65
BRANCH  58  82
ATOM     82  C6  SGN d 505     -20.008  52.466 172.029  0.00  0.00     0.198 C 
BRANCH  82  83
ATOM     83  O6  SGN d 505     -19.494  53.354 171.096  0.00  0.00    -0.235 OA
BRANCH  83  84
ATOM     84  S2  SGN d 505     -20.240  54.468 170.376  0.00  0.00     0.252 S 
ATOM     85  O6S SGN d 505     -19.282  55.542 170.150  0.00  0.00    -0.572 OA
ATOM     86  O4S SGN d 505     -20.703  53.865 169.146  0.00  0.00    -0.572 OA
ATOM     87  O5S SGN d 505     -21.290  54.848 171.287  0.00  0.00    -0.572 OA
ENDBRANCH  83  84
ENDBRANCH  82  83
ENDBRANCH  58  82
ENDBRANCH  52  53
ENDBRANCH   7  52
TORSDOF 27

ENDMDL
MODEL 19
REMARK VINA RESULT:       4.0      2.708     10.139
REMARK  27 active torsions:
REMARK  status: ('A' for Active; 'I' for Inactive)
REMARK    1  A    between atoms: C2_1  and  O2_78 
REMARK    2  A    between atoms: C1_3  and  O4_50 
REMARK    3  A    between atoms: O4_5  and  C4_58 
REMARK    4  A    between atoms: O4_5  and  C1_27 
REMARK    5  A    between atoms: C2_6  and  N_39 
REMARK    6  A    between atoms: S1_9  and  N_39 
REMARK    7  A    between atoms: C6_10  and  C5_52 
REMARK    8  A    between atoms: C2_12  and  N_73 
REMARK    9  A    between atoms: C2_19  and  O2_24 
REMARK   10  A    between atoms: C2_21  and  O2_44 
REMARK   11  A    between atoms: S2_23  and  O6_65 
REMARK   12  A    between atoms: O2_24  and  S_54 
REMARK   13  A    between atoms: C1_28  and  O4_60 
REMARK   14  A    between atoms: C5_29  and  C6_38 
REMARK   15  A    between atoms: C5_30  and  C6_33 
REMARK   16  A    between atoms: S1_34  and  N_73 
REMARK   17  A    between atoms: C5_41  and  C6_46 
REMARK   18  A    between atoms: S_43  and  O2_44 
REMARK   19  A    between atoms: C6_46  and  O6_72 
REMARK   20  A    between atoms: O4_50  and  C4_71 
REMARK   21  A    between atoms: C1_56  and  O4_64 
REMARK   22  A    between atoms: O4_60  and  C4_83 
REMARK   23  A    between atoms: C4_61  and  O4_64 
REMARK   24  A    between atoms: S2_63  and  O6_72 
REMARK   25  A    between atoms: O6_65  and  C6_67 
REMARK   26  A    between atoms: C6_67  and  C5_75 
REMARK   27  A    between atoms: S_76  and  O2_78 
ROOT
ATOM      1  C2  IDS d 504     -12.650  45.365 175.198  0.00  0.00     0.226 C 
ATOM      2  O3  IDS d 504     -12.575  46.198 177.504  0.00  0.00    -0.218 OA
ATOM      3  O5  IDS d 504     -11.895  47.500 174.300  0.00  0.00    -0.318 OA
ATOM      4  C5  IDS d 504     -12.359  48.223 175.418  0.00  0.00     0.234 C 
ATOM      5  C1  IDS d 504     -11.508  46.153 174.588  0.00  0.00     0.269 C 
ATOM      6  C3  IDS d 504     -13.390  46.164 176.340  0.00  0.00     0.216 C 
ATOM      7  C4  IDS d 504     -13.656  47.606 175.937  0.00  0.00     0.189 C 
ENDROOT
BRANCH   5   8
ATOM      8  O4  SGN d 503     -10.414  46.084 175.457  0.00  0.00    -0.326 OA
BRANCH   8   9
ATOM      9  C4  SGN d 503      -9.180  46.105 174.816  0.00  0.00     0.180 C 
ATOM     10  C3  SGN d 503      -9.245  45.170 173.610  0.00  0.00     0.210 C 
ATOM     11  C2  SGN d 503      -7.982  45.360 172.790  0.00  0.00     0.207 C 
ATOM     12  O3  SGN d 503      -9.315  43.840 174.087  0.00  0.00    -0.218 OA
ATOM     13  C1  SGN d 503      -7.754  46.836 172.435  0.00  0.00     0.263 C 
ATOM     14  O5  SGN d 503      -7.709  47.601 173.614  0.00  0.00    -0.327 OA
ATOM     15  C5  SGN d 503      -8.887  47.543 174.356  0.00  0.00     0.179 C 
BRANCH  11  16
ATOM     16  N   SGN d 503      -8.004  44.546 171.587  0.00  0.00    -0.162 NA
BRANCH  16  17
ATOM     17  S1  SGN d 503      -6.826  43.438 171.406  0.00  0.00     0.227 S 
ATOM     18  O1S SGN d 503      -7.468  42.142 171.520  0.00  0.00    -0.577 OA
ATOM     19  O2S SGN d 503      -6.214  43.634 170.093  0.00  0.00    -0.577 OA
ATOM     20  O3S SGN d 503      -5.938  43.714 172.513  0.00  0.00    -0.577 OA
ENDBRANCH  16  17
ENDBRANCH  11  16
BRANCH  13  21
ATOM     21  O4  IDS d 502      -8.746  47.300 171.560  0.00  0.00    -0.326 OA
BRANCH  21  22
ATOM     22  C4  IDS d 502      -8.265  47.814 170.345  0.00  0.00     0.189 C 
ATOM     23  C3  IDS d 502      -8.821  46.980 169.175  0.00  0.00     0.216 C 
ATOM     24  O3  IDS d 502      -8.175  47.376 167.981  0.00  0.00    -0.218 OA
ATOM     25  C2  IDS d 502     -10.325  47.212 169.001  0.00  0.00     0.229 C 
ATOM     26  C1  IDS d 502     -10.675  48.696 169.000  0.00  0.00     0.301 C 
ATOM     27  O1  IDS d 502     -10.249  49.239 167.778  0.00  0.00    -0.187 OA
ATOM     28  O5  IDS d 502     -10.114  49.355 170.108  0.00  0.00    -0.316 OA
ATOM     29  C5  IDS d 502      -8.706  49.269 170.199  0.00  0.00     0.234 C 
BRANCH  25  30
ATOM     30  O2  IDS d 502     -10.967  46.615 170.096  0.00  0.00    -0.232 OA
BRANCH  30  31
ATOM     31  S   IDS d 502     -12.452  46.132 170.188  0.00  0.00     0.252 S 
ATOM     32  O3S IDS d 502     -12.946  46.695 171.418  0.00  0.00    -0.572 OA
ATOM     33  O2S IDS d 502     -12.399  44.689 170.188  0.00  0.00    -0.572 OA
ATOM     34  O1S IDS d 502     -13.142  46.653 169.041  0.00  0.00    -0.572 OA
ENDBRANCH  30  31
ENDBRANCH  25  30
BRANCH  29  35
ATOM     35  C6  IDS d 502      -8.180  50.193 171.288  0.00  0.00     0.216 C 
ATOM     36  O61 IDS d 502      -7.000  50.266 171.532  0.00  0.00    -0.646 OA
ATOM     37  O62 IDS d 502      -8.935  50.888 171.939  0.00  0.00    -0.646 OA
ENDBRANCH  29  35
ENDBRANCH  21  22
ENDBRANCH  13  21
BRANCH  15  38
ATOM     38  C6  SGN d 503      -8.676  48.524 175.478  0.00  0.00     0.198 C 
BRANCH  38  39
ATOM     39  O6  SGN d 503      -8.928  49.815 174.967  0.00  0.00    -0.235 OA
BRANCH  39  40
ATOM     40  S2  SGN d 503      -8.352  51.139 175.535  0.00  0.00     0.252 S 
ATOM     41  O4S SGN d 503      -9.300  52.175 175.301  0.00  0.00    -0.572 OA
ATOM     42  O5S SGN d 503      -8.116  50.926 176.959  0.00  0.00    -0.572 OA
ATOM     43  O6S SGN d 503      -7.193  51.360 174.761  0.00  0.00    -0.572 OA
ENDBRANCH  39  40
ENDBRANCH  38  39
ENDBRANCH  15  38
ENDBRANCH   8   9
ENDBRANCH   5   8
BRANCH   1  44
ATOM     44  O2  IDS d 504     -13.563  45.021 174.158  0.00  0.00    -0.233 OA
BRANCH  44  45
ATOM     45  S   IDS d 504     -13.848  43.609 173.614  0.00  0.00     0.252 S 
ATOM     46  O3S IDS d 504     -14.385  42.924 174.730  0.00  0.00    -0.572 OA
ATOM     47  O2S IDS d 504     -12.612  43.078 173.118  0.00  0.00    -0.572 OA
ATOM     48  O1S IDS d 504     -14.803  43.765 172.579  0.00  0.00    -0.572 OA
ENDBRANCH  44  45
ENDBRANCH   1  44
BRANCH   4  49
ATOM     49  C6  IDS d 504     -12.434  49.724 175.094  0.00  0.00     0.216 C 
ATOM     50  O62 IDS d 504     -12.146  50.573 175.940  0.00  0.00    -0.646 OA
ATOM     51  O61 IDS d 504     -12.799  50.113 173.992  0.00  0.00    -0.646 OA
ENDBRANCH   4  49
BRANCH   7  52
ATOM     52  O4  IDS d 504     -14.651  47.635 174.925  0.00  0.00    -0.326 OA
BRANCH  52  53
ATOM     53  C1  SGN d 505     -15.958  47.762 175.417  0.00  0.00     0.263 C 
ATOM     54  C2  SGN d 505     -16.985  47.649 174.307  0.00  0.00     0.207 C 
ATOM     55  C3  SGN d 505     -16.876  48.844 173.339  0.00  0.00     0.210 C 
ATOM     56  C4  SGN d 505     -17.066  50.115 174.217  0.00  0.00     0.180 C 
ATOM     57  O3  SGN d 505     -17.917  48.741 172.377  0.00  0.00    -0.218 OA
ATOM     58  C5  SGN d 505     -15.977  50.095 175.239  0.00  0.00     0.179 C 
ATOM     59  O5  SGN d 505     -16.115  48.987 176.075  0.00  0.00    -0.327 OA
BRANCH  54  60
ATOM     60  N   SGN d 505     -16.882  46.312 173.678  0.00  0.00    -0.162 NA
BRANCH  60  61
ATOM     61  S1  SGN d 505     -18.051  45.178 174.074  0.00  0.00     0.227 S 
ATOM     62  O3S SGN d 505     -18.426  44.532 172.867  0.00  0.00    -0.577 OA
ATOM     63  O1S SGN d 505     -17.472  44.273 175.044  0.00  0.00    -0.577 OA
ATOM     64  O2S SGN d 505     -19.144  45.947 174.620  0.00  0.00    -0.577 OA
ENDBRANCH  60  61
ENDBRANCH  54  60
BRANCH  56  65
ATOM     65  O4  SGN d 505     -16.936  51.348 173.540  0.00  0.00    -0.326 OA
BRANCH  65  66
ATOM     66  C1  IDS d 506     -18.015  52.104 173.110  0.00  0.00     0.269 C 
ATOM     67  C2  IDS d 506     -17.491  53.361 172.402  0.00  0.00     0.226 C 
ATOM     68  C3  IDS d 506     -18.584  54.443 172.178  0.00  0.00     0.219 C 
ATOM     69  O3  IDS d 506     -19.304  54.118 170.991  0.00  0.00    -0.218 OA
ATOM     70  C4  IDS d 506     -19.588  54.562 173.344  0.00  0.00     0.223 C 
ATOM     71  O4  IDS d 506     -18.984  55.358 174.336  0.00  0.00    -0.217 OA
ATOM     72  C5  IDS d 506     -19.918  53.180 173.920  0.00  0.00     0.237 C 
ATOM     73  O5  IDS d 506     -18.746  52.505 174.241  0.00  0.00    -0.318 OA
BRANCH  67  74
ATOM     74  O2  IDS d 506     -16.471  53.965 173.174  0.00  0.00    -0.233 OA
BRANCH  74  75
ATOM     75  S   IDS d 506     -14.983  54.313 172.740  0.00  0.00     0.252 S 
ATOM     76  O1S IDS d 506     -14.244  53.105 172.942  0.00  0.00    -0.572 OA
ATOM     77  O2S IDS d 506     -14.998  54.682 171.353  0.00  0.00    -0.572 OA
ATOM     78  O3S IDS d 506     -14.566  55.389 173.613  0.00  0.00    -0.572 OA
ENDBRANCH  74  75
ENDBRANCH  67  74
BRANCH  72  79
ATOM     79  C6  IDS d 506     -20.860  53.147 175.108  0.00  0.00     0.217 C 
ATOM     80  O61 IDS d 506     -21.707  54.020 175.242  0.00  0.00    -0.646 OA
ATOM     81  O62 IDS d 506     -20.796  52.278 175.960  0.00  0.00    -0.646 OA
ENDBRANCH  72  79
ENDBRANCH  65  66
ENDBRANCH  56  65
BRANCH  58  82
ATOM     82  C6  SGN d 505     -15.994  51.295 176.129  0.00  0.00     0.198 C 
BRANCH  82  83
ATOM     83  O6  SGN d 505     -15.851  50.796 177.415  0.00  0.00    -0.235 OA
BRANCH  83  84
ATOM     84  S2  SGN d 505     -14.782  51.167 178.433  0.00  0.00     0.252 S 
ATOM     85  O6S SGN d 505     -15.476  51.528 179.662  0.00  0.00    -0.572 OA
ATOM     86  O4S SGN d 505     -13.980  49.974 178.575  0.00  0.00    -0.572 OA
ATOM     87  O5S SGN d 505     -14.091  52.285 177.841  0.00  0.00    -0.572 OA
ENDBRANCH  83  84
ENDBRANCH  82  83
ENDBRANCH  58  82
ENDBRANCH  52  53
ENDBRANCH   7  52
TORSDOF 27

ENDMDL
MODEL 20
REMARK VINA RESULT:       4.1      3.461      9.876
REMARK  27 active torsions:
REMARK  status: ('A' for Active; 'I' for Inactive)
REMARK    1  A    between atoms: C2_1  and  O2_78 
REMARK    2  A    between atoms: C1_3  and  O4_50 
REMARK    3  A    between atoms: O4_5  and  C4_58 
REMARK    4  A    between atoms: O4_5  and  C1_27 
REMARK    5  A    between atoms: C2_6  and  N_39 
REMARK    6  A    between atoms: S1_9  and  N_39 
REMARK    7  A    between atoms: C6_10  and  C5_52 
REMARK    8  A    between atoms: C2_12  and  N_73 
REMARK    9  A    between atoms: C2_19  and  O2_24 
REMARK   10  A    between atoms: C2_21  and  O2_44 
REMARK   11  A    between atoms: S2_23  and  O6_65 
REMARK   12  A    between atoms: O2_24  and  S_54 
REMARK   13  A    between atoms: C1_28  and  O4_60 
REMARK   14  A    between atoms: C5_29  and  C6_38 
REMARK   15  A    between atoms: C5_30  and  C6_33 
REMARK   16  A    between atoms: S1_34  and  N_73 
REMARK   17  A    between atoms: C5_41  and  C6_46 
REMARK   18  A    between atoms: S_43  and  O2_44 
REMARK   19  A    between atoms: C6_46  and  O6_72 
REMARK   20  A    between atoms: O4_50  and  C4_71 
REMARK   21  A    between atoms: C1_56  and  O4_64 
REMARK   22  A    between atoms: O4_60  and  C4_83 
REMARK   23  A    between atoms: C4_61  and  O4_64 
REMARK   24  A    between atoms: S2_63  and  O6_72 
REMARK   25  A    between atoms: O6_65  and  C6_67 
REMARK   26  A    between atoms: C6_67  and  C5_75 
REMARK   27  A    between atoms: S_76  and  O2_78 
ROOT
ATOM      1  C2  IDS d 504     -19.537  47.574 172.418  0.00  0.00     0.226 C 
ATOM      2  O3  IDS d 504     -20.378  45.848 173.943  0.00  0.00    -0.218 OA
ATOM      3  O5  IDS d 504     -17.425  47.744 173.620  0.00  0.00    -0.318 OA
ATOM      4  C5  IDS d 504     -17.979  47.253 174.819  0.00  0.00     0.234 C 
ATOM      5  C1  IDS d 504     -18.056  47.251 172.434  0.00  0.00     0.269 C 
ATOM      6  C3  IDS d 504     -20.238  47.256 173.794  0.00  0.00     0.216 C 
ATOM      7  C4  IDS d 504     -19.415  47.750 174.974  0.00  0.00     0.189 C 
ENDROOT
BRANCH   5   8
ATOM      8  O4  SGN d 503     -17.906  45.869 172.281  0.00  0.00    -0.326 OA
BRANCH   8   9
ATOM      9  C4  SGN d 503     -16.695  45.491 171.713  0.00  0.00     0.180 C 
ATOM     10  C3  SGN d 503     -16.044  46.724 171.092  0.00  0.00     0.210 C 
ATOM     11  C2  SGN d 503     -14.633  46.359 170.671  0.00  0.00     0.207 C 
ATOM     12  O3  SGN d 503     -16.804  47.100 169.959  0.00  0.00    -0.218 OA
ATOM     13  C1  SGN d 503     -13.838  45.739 171.830  0.00  0.00     0.263 C 
ATOM     14  O5  SGN d 503     -14.524  44.615 172.321  0.00  0.00    -0.327 OA
ATOM     15  C5  SGN d 503     -15.792  44.913 172.817  0.00  0.00     0.179 C 
BRANCH  11  16
ATOM     16  N   SGN d 503     -13.928  47.507 170.128  0.00  0.00    -0.162 NA
BRANCH  16  17
ATOM     17  S1  SGN d 503     -13.691  47.553 168.518  0.00  0.00     0.227 S 
ATOM     18  O1S SGN d 503     -14.741  48.395 167.978  0.00  0.00    -0.577 OA
ATOM     19  O2S SGN d 503     -12.361  48.105 168.268  0.00  0.00    -0.577 OA
ATOM     20  O3S SGN d 503     -13.834  46.169 168.123  0.00  0.00    -0.577 OA
ENDBRANCH  16  17
ENDBRANCH  11  16
BRANCH  13  21
ATOM     21  O4  IDS d 502     -13.609  46.683 172.840  0.00  0.00    -0.326 OA
BRANCH  21  22
ATOM     22  C4  IDS d 502     -12.263  46.830 173.213  0.00  0.00     0.189 C 
ATOM     23  C3  IDS d 502     -11.832  48.297 173.027  0.00  0.00     0.216 C 
ATOM     24  O3  IDS d 502     -10.433  48.392 173.211  0.00  0.00    -0.218 OA
ATOM     25  C2  IDS d 502     -12.510  49.202 174.060  0.00  0.00     0.229 C 
ATOM     26  C1  IDS d 502     -12.396  48.638 175.473  0.00  0.00     0.301 C 
ATOM     27  O1  IDS d 502     -11.070  48.808 175.900  0.00  0.00    -0.187 OA
ATOM     28  O5  IDS d 502     -12.812  47.296 175.522  0.00  0.00    -0.316 OA
ATOM     29  C5  IDS d 502     -12.093  46.421 174.675  0.00  0.00     0.234 C 
BRANCH  25  30
ATOM     30  O2  IDS d 502     -13.871  49.269 173.727  0.00  0.00    -0.232 OA
BRANCH  30  31
ATOM     31  S   IDS d 502     -14.690  50.530 173.295  0.00  0.00     0.252 S 
ATOM     32  O3S IDS d 502     -14.957  50.332 171.894  0.00  0.00    -0.572 OA
ATOM     33  O2S IDS d 502     -13.841  51.666 173.571  0.00  0.00    -0.572 OA
ATOM     34  O1S IDS d 502     -15.894  50.545 174.079  0.00  0.00    -0.572 OA
ENDBRANCH  30  31
ENDBRANCH  25  30
BRANCH  29  35
ATOM     35  C6  IDS d 502     -12.457  44.972 174.964  0.00  0.00     0.216 C 
ATOM     36  O61 IDS d 502     -13.308  44.689 175.772  0.00  0.00    -0.646 OA
ATOM     37  O62 IDS d 502     -11.903  44.059 174.384  0.00  0.00    -0.646 OA
ENDBRANCH  29  35
ENDBRANCH  21  22
ENDBRANCH  13  21
BRANCH  15  38
ATOM     38  C6  SGN d 503     -16.282  43.620 173.409  0.00  0.00     0.198 C 
BRANCH  38  39
ATOM     39  O6  SGN d 503     -16.924  43.926 174.627  0.00  0.00    -0.235 OA
BRANCH  39  40
ATOM     40  S2  SGN d 503     -16.687  43.203 175.980  0.00  0.00     0.252 S 
ATOM     41  O4S SGN d 503     -15.611  42.286 175.814  0.00  0.00    -0.572 OA
ATOM     42  O5S SGN d 503     -16.380  44.234 176.967  0.00  0.00    -0.572 OA
ATOM     43  O6S SGN d 503     -17.892  42.502 176.201  0.00  0.00    -0.572 OA
ENDBRANCH  39  40
ENDBRANCH  38  39
ENDBRANCH  15  38
ENDBRANCH   8   9
ENDBRANCH   5   8
BRANCH   1  44
ATOM     44  O2  IDS d 504     -19.691  48.953 172.087  0.00  0.00    -0.233 OA
BRANCH  44  45
ATOM     45  S   IDS d 504     -20.727  49.557 171.121  0.00  0.00     0.252 S 
ATOM     46  O3S IDS d 504     -21.968  49.229 171.715  0.00  0.00    -0.572 OA
ATOM     47  O2S IDS d 504     -20.505  48.977 169.829  0.00  0.00    -0.572 OA
ATOM     48  O1S IDS d 504     -20.497  50.956 171.112  0.00  0.00    -0.572 OA
ENDBRANCH  44  45
ENDBRANCH   1  44
BRANCH   4  49
ATOM     49  C6  IDS d 504     -17.051  47.560 176.006  0.00  0.00     0.216 C 
ATOM     50  O62 IDS d 504     -15.868  47.861 175.828  0.00  0.00    -0.646 OA
ATOM     51  O61 IDS d 504     -17.460  47.497 177.158  0.00  0.00    -0.646 OA
ENDBRANCH   4  49
BRANCH   7  52
ATOM     52  O4  IDS d 504     -19.441  49.170 175.002  0.00  0.00    -0.326 OA
BRANCH  52  53
ATOM     53  C1  SGN d 505     -20.114  49.703 176.110  0.00  0.00     0.263 C 
ATOM     54  C2  SGN d 505     -21.116  50.763 175.696  0.00  0.00     0.207 C 
ATOM     55  C3  SGN d 505     -20.397  51.997 175.117  0.00  0.00     0.210 C 
ATOM     56  C4  SGN d 505     -19.426  52.481 176.233  0.00  0.00     0.180 C 
ATOM     57  O3  SGN d 505     -21.369  52.995 174.834  0.00  0.00    -0.218 OA
ATOM     58  C5  SGN d 505     -18.496  51.345 176.513  0.00  0.00     0.179 C 
ATOM     59  O5  SGN d 505     -19.202  50.253 177.017  0.00  0.00    -0.327 OA
BRANCH  54  60
ATOM     60  N   SGN d 505     -22.138  50.153 174.814  0.00  0.00    -0.162 NA
BRANCH  60  61
ATOM     61  S1  SGN d 505     -23.644  49.838 175.478  0.00  0.00     0.227 S 
ATOM     62  O3S SGN d 505     -24.407  49.178 174.479  0.00  0.00    -0.577 OA
ATOM     63  O1S SGN d 505     -23.440  49.030 176.661  0.00  0.00    -0.577 OA
ATOM     64  O2S SGN d 505     -24.194  51.138 175.786  0.00  0.00    -0.577 OA
ENDBRANCH  60  61
ENDBRANCH  54  60
BRANCH  56  65
ATOM     65  O4  SGN d 505     -18.603  53.577 175.892  0.00  0.00    -0.326 OA
BRANCH  65  66
ATOM     66  C1  IDS d 506     -19.072  54.723 175.268  0.00  0.00     0.269 C 
ATOM     67  C2  IDS d 506     -17.875  55.603 174.882  0.00  0.00     0.226 C 
ATOM     68  C3  IDS d 506     -18.278  57.051 174.487  0.00  0.00     0.219 C 
ATOM     69  O3  IDS d 506     -18.676  57.052 173.118  0.00  0.00    -0.218 OA
ATOM     70  C4  IDS d 506     -19.433  57.627 175.334  0.00  0.00     0.223 C 
ATOM     71  O4  IDS d 506     -18.874  58.096 176.538  0.00  0.00    -0.217 OA
ATOM     72  C5  IDS d 506     -20.477  56.546 175.634  0.00  0.00     0.237 C 
ATOM     73  O5  IDS d 506     -19.863  55.430 176.189  0.00  0.00    -0.318 OA
BRANCH  67  74
ATOM     74  O2  IDS d 506     -16.978  55.710 175.970  0.00  0.00    -0.233 OA
BRANCH  74  75
ATOM     75  S   IDS d 506     -15.441  55.312 176.022  0.00  0.00     0.252 S 
ATOM     76  O1S IDS d 506     -15.323  54.430 177.142  0.00  0.00    -0.572 OA
ATOM     77  O2S IDS d 506     -15.113  54.638 174.798  0.00  0.00    -0.572 OA
ATOM     78  O3S IDS d 506     -14.724  56.557 176.198  0.00  0.00    -0.572 OA
ENDBRANCH  74  75
ENDBRANCH  67  74
BRANCH  72  79
ATOM     79  C6  IDS d 506     -21.651  56.959 176.503  0.00  0.00     0.217 C 
ATOM     80  O61 IDS d 506     -21.688  56.627 177.679  0.00  0.00    -0.646 OA
ATOM     81  O62 IDS d 506     -22.583  57.609 176.062  0.00  0.00    -0.646 OA
ENDBRANCH  72  79
ENDBRANCH  65  66
ENDBRANCH  56  65
BRANCH  58  82
ATOM     82  C6  SGN d 505     -17.459  51.682 177.534  0.00  0.00     0.198 C 
BRANCH  82  83
ATOM     83  O6  SGN d 505     -16.436  50.770 177.327  0.00  0.00    -0.235 OA
BRANCH  83  84
ATOM     84  S2  SGN d 505     -15.045  50.790 177.944  0.00  0.00     0.252 S 
ATOM     85  O6S SGN d 505     -15.100  51.697 179.083  0.00  0.00    -0.572 OA
ATOM     86  O4S SGN d 505     -14.795  49.421 178.333  0.00  0.00    -0.572 OA
ATOM     87  O5S SGN d 505     -14.189  51.278 176.892  0.00  0.00    -0.572 OA
ENDBRANCH  83  84
ENDBRANCH  82  83
ENDBRANCH  58  82
ENDBRANCH  52  53
ENDBRANCH   7  52
TORSDOF 27

ENDMDL
MODEL 21
REMARK VINA RESULT:       4.1      3.814     10.484
REMARK  27 active torsions:
REMARK  status: ('A' for Active; 'I' for Inactive)
REMARK    1  A    between atoms: C2_1  and  O2_78 
REMARK    2  A    between atoms: C1_3  and  O4_50 
REMARK    3  A    between atoms: O4_5  and  C4_58 
REMARK    4  A    between atoms: O4_5  and  C1_27 
REMARK    5  A    between atoms: C2_6  and  N_39 
REMARK    6  A    between atoms: S1_9  and  N_39 
REMARK    7  A    between atoms: C6_10  and  C5_52 
REMARK    8  A    between atoms: C2_12  and  N_73 
REMARK    9  A    between atoms: C2_19  and  O2_24 
REMARK   10  A    between atoms: C2_21  and  O2_44 
REMARK   11  A    between atoms: S2_23  and  O6_65 
REMARK   12  A    between atoms: O2_24  and  S_54 
REMARK   13  A    between atoms: C1_28  and  O4_60 
REMARK   14  A    between atoms: C5_29  and  C6_38 
REMARK   15  A    between atoms: C5_30  and  C6_33 
REMARK   16  A    between atoms: S1_34  and  N_73 
REMARK   17  A    between atoms: C5_41  and  C6_46 
REMARK   18  A    between atoms: S_43  and  O2_44 
REMARK   19  A    between atoms: C6_46  and  O6_72 
REMARK   20  A    between atoms: O4_50  and  C4_71 
REMARK   21  A    between atoms: C1_56  and  O4_64 
REMARK   22  A    between atoms: O4_60  and  C4_83 
REMARK   23  A    between atoms: C4_61  and  O4_64 
REMARK   24  A    between atoms: S2_63  and  O6_72 
REMARK   25  A    between atoms: O6_65  and  C6_67 
REMARK   26  A    between atoms: C6_67  and  C5_75 
REMARK   27  A    between atoms: S_76  and  O2_78 
ROOT
ATOM      1  C2  IDS d 504     -14.599  48.257 176.756  0.00  0.00     0.226 C 
ATOM      2  O3  IDS d 504     -13.655  49.631 178.555  0.00  0.00    -0.218 OA
ATOM      3  O5  IDS d 504     -13.804  49.789 175.037  0.00  0.00    -0.318 OA
ATOM      4  C5  IDS d 504     -13.757  50.883 175.925  0.00  0.00     0.234 C 
ATOM      5  C1  IDS d 504     -13.589  48.517 175.657  0.00  0.00     0.269 C 
ATOM      6  C3  IDS d 504     -14.789  49.501 177.707  0.00  0.00     0.216 C 
ATOM      7  C4  IDS d 504     -14.911  50.798 176.922  0.00  0.00     0.189 C 
ENDROOT
BRANCH   5   8
ATOM      8  O4  SGN d 503     -12.306  48.398 176.202  0.00  0.00    -0.326 OA
BRANCH   8   9
ATOM      9  C4  SGN d 503     -11.379  47.816 175.345  0.00  0.00     0.180 C 
ATOM     10  C3  SGN d 503     -11.980  46.531 174.781  0.00  0.00     0.210 C 
ATOM     11  C2  SGN d 503     -11.065  46.016 173.686  0.00  0.00     0.207 C 
ATOM     12  O3  SGN d 503     -12.057  45.584 175.830  0.00  0.00    -0.218 OA
ATOM     13  C1  SGN d 503     -10.779  47.096 172.633  0.00  0.00     0.263 C 
ATOM     14  O5  SGN d 503     -10.228  48.228 173.258  0.00  0.00    -0.327 OA
ATOM     15  C5  SGN d 503     -11.073  48.803 174.205  0.00  0.00     0.179 C 
BRANCH  11  16
ATOM     16  N   SGN d 503     -11.609  44.825 173.057  0.00  0.00    -0.162 NA
BRANCH  16  17
ATOM     17  S1  SGN d 503     -10.748  43.449 173.178  0.00  0.00     0.227 S 
ATOM     18  O1S SGN d 503     -11.573  42.520 173.928  0.00  0.00    -0.577 OA
ATOM     19  O2S SGN d 503     -10.467  42.966 171.827  0.00  0.00    -0.577 OA
ATOM     20  O3S SGN d 503      -9.570  43.858 173.910  0.00  0.00    -0.577 OA
ENDBRANCH  16  17
ENDBRANCH  11  16
BRANCH  13  21
ATOM     21  O4  IDS d 502     -11.940  47.419 171.918  0.00  0.00    -0.326 OA
BRANCH  21  22
ATOM     22  C4  IDS d 502     -12.018  46.855 170.634  0.00  0.00     0.189 C 
ATOM     23  C3  IDS d 502     -13.470  46.429 170.344  0.00  0.00     0.216 C 
ATOM     24  O3  IDS d 502     -13.498  45.685 169.141  0.00  0.00    -0.218 OA
ATOM     25  C2  IDS d 502     -14.375  47.652 170.168  0.00  0.00     0.229 C 
ATOM     26  C1  IDS d 502     -13.768  48.677 169.216  0.00  0.00     0.301 C 
ATOM     27  O1  IDS d 502     -13.867  48.168 167.912  0.00  0.00    -0.187 OA
ATOM     28  O5  IDS d 502     -12.445  48.987 169.575  0.00  0.00    -0.316 OA
ATOM     29  C5  IDS d 502     -11.562  47.883 169.600  0.00  0.00     0.234 C 
BRANCH  25  30
ATOM     30  O2  IDS d 502     -14.511  48.254 171.427  0.00  0.00    -0.232 OA
BRANCH  30  31
ATOM     31  S   IDS d 502     -15.595  49.286 171.883  0.00  0.00     0.252 S 
ATOM     32  O3S IDS d 502     -16.643  49.175 170.902  0.00  0.00    -0.572 OA
ATOM     33  O2S IDS d 502     -14.937  50.572 171.890  0.00  0.00    -0.572 OA
ATOM     34  O1S IDS d 502     -16.036  48.890 173.192  0.00  0.00    -0.572 OA
ENDBRANCH  30  31
ENDBRANCH  25  30
BRANCH  29  35
ATOM     35  C6  IDS d 502     -10.123  48.347 169.773  0.00  0.00     0.216 C 
ATOM     36  O61 IDS d 502      -9.195  47.630 169.488  0.00  0.00    -0.646 OA
ATOM     37  O62 IDS d 502      -9.870  49.457 170.200  0.00  0.00    -0.646 OA
ENDBRANCH  29  35
ENDBRANCH  21  22
ENDBRANCH  13  21
BRANCH  15  38
ATOM     38  C6  SGN d 503     -10.360  50.054 174.640  0.00  0.00     0.198 C 
BRANCH  38  39
ATOM     39  O6  SGN d 503     -10.182  50.862 173.497  0.00  0.00    -0.235 OA
BRANCH  39  40
ATOM     40  S2  SGN d 503      -9.091  51.951 173.321  0.00  0.00     0.252 S 
ATOM     41  O4S SGN d 503      -8.357  52.048 174.537  0.00  0.00    -0.572 OA
ATOM     42  O5S SGN d 503      -8.247  51.535 172.205  0.00  0.00    -0.572 OA
ATOM     43  O6S SGN d 503      -9.830  53.134 173.105  0.00  0.00    -0.572 OA
ENDBRANCH  39  40
ENDBRANCH  38  39
ENDBRANCH  15  38
ENDBRANCH   8   9
ENDBRANCH   5   8
BRANCH   1  44
ATOM     44  O2  IDS d 504     -15.839  47.900 176.149  0.00  0.00    -0.233 OA
BRANCH  44  45
ATOM     45  S   IDS d 504     -16.397  46.477 175.964  0.00  0.00     0.252 S 
ATOM     46  O3S IDS d 504     -16.875  46.136 177.252  0.00  0.00    -0.572 OA
ATOM     47  O2S IDS d 504     -15.329  45.652 175.480  0.00  0.00    -0.572 OA
ATOM     48  O1S IDS d 504     -17.448  46.578 175.019  0.00  0.00    -0.572 OA
ENDBRANCH  44  45
ENDBRANCH   1  44
BRANCH   4  49
ATOM     49  C6  IDS d 504     -13.666  52.205 175.144  0.00  0.00     0.216 C 
ATOM     50  O62 IDS d 504     -13.926  53.283 175.684  0.00  0.00    -0.646 OA
ATOM     51  O61 IDS d 504     -13.349  52.217 173.962  0.00  0.00    -0.646 OA
ENDBRANCH   4  49
BRANCH   7  52
ATOM     52  O4  IDS d 504     -16.154  50.815 176.235  0.00  0.00    -0.326 OA
BRANCH  52  53
ATOM     53  C1  SGN d 505     -17.237  51.212 177.031  0.00  0.00     0.263 C 
ATOM     54  C2  SGN d 505     -18.561  50.811 176.411  0.00  0.00     0.207 C 
ATOM     55  C3  SGN d 505     -18.808  51.585 175.102  0.00  0.00     0.210 C 
ATOM     56  C4  SGN d 505     -18.749  53.092 175.486  0.00  0.00     0.180 C 
ATOM     57  O3  SGN d 505     -20.099  51.246 174.613  0.00  0.00    -0.218 OA
ATOM     58  C5  SGN d 505     -17.389  53.335 176.057  0.00  0.00     0.179 C 
ATOM     59  O5  SGN d 505     -17.215  52.598 177.228  0.00  0.00    -0.327 OA
BRANCH  54  60
ATOM     60  N   SGN d 505     -18.620  49.336 176.296  0.00  0.00    -0.162 NA
BRANCH  60  61
ATOM     61  S1  SGN d 505     -20.040  48.579 176.767  0.00  0.00     0.227 S 
ATOM     62  O3S SGN d 505     -20.668  48.105 175.585  0.00  0.00    -0.577 OA
ATOM     63  O1S SGN d 505     -19.686  47.517 177.685  0.00  0.00    -0.577 OA
ATOM     64  O2S SGN d 505     -20.822  49.616 177.399  0.00  0.00    -0.577 OA
ENDBRANCH  60  61
ENDBRANCH  54  60
BRANCH  56  65
ATOM     65  O4  SGN d 505     -18.883  54.001 174.414  0.00  0.00    -0.326 OA
BRANCH  65  66
ATOM     66  C1  IDS d 506     -20.050  54.700 174.143  0.00  0.00     0.269 C 
ATOM     67  C2  IDS d 506     -19.841  55.543 172.877  0.00  0.00     0.226 C 
ATOM     68  C3  IDS d 506     -20.944  56.617 172.664  0.00  0.00     0.219 C 
ATOM     69  O3  IDS d 506     -22.060  56.000 172.027  0.00  0.00    -0.218 OA
ATOM     70  C4  IDS d 506     -21.429  57.276 173.973  0.00  0.00     0.223 C 
ATOM     71  O4  IDS d 506     -20.498  58.279 174.307  0.00  0.00    -0.217 OA
ATOM     72  C5  IDS d 506     -21.507  56.245 175.104  0.00  0.00     0.237 C 
ATOM     73  O5  IDS d 506     -20.298  55.570 175.218  0.00  0.00    -0.318 OA
BRANCH  67  74
ATOM     74  O2  IDS d 506     -18.608  56.231 172.948  0.00  0.00    -0.233 OA
BRANCH  74  75
ATOM     75  S   IDS d 506     -17.428  56.251 171.884  0.00  0.00     0.252 S 
ATOM     76  O1S IDS d 506     -18.078  56.298 170.610  0.00  0.00    -0.572 OA
ATOM     77  O2S IDS d 506     -16.644  57.432 172.108  0.00  0.00    -0.572 OA
ATOM     78  O3S IDS d 506     -16.690  55.025 172.102  0.00  0.00    -0.572 OA
ENDBRANCH  74  75
ENDBRANCH  67  74
BRANCH  72  79
ATOM     79  C6  IDS d 506     -21.926  56.762 176.467  0.00  0.00     0.217 C 
ATOM     80  O61 IDS d 506     -22.877  57.525 176.566  0.00  0.00    -0.646 OA
ATOM     81  O62 IDS d 506     -21.332  56.455 177.486  0.00  0.00    -0.646 OA
ENDBRANCH  72  79
ENDBRANCH  65  66
ENDBRANCH  56  65
BRANCH  58  82
ATOM     82  C6  SGN d 505     -17.160  54.765 176.423  0.00  0.00     0.198 C 
BRANCH  82  83
ATOM     83  O6  SGN d 505     -16.338  55.269 175.426  0.00  0.00    -0.235 OA
BRANCH  83  84
ATOM     84  S2  SGN d 505     -15.385  56.450 175.528  0.00  0.00     0.252 S 
ATOM     85  O6S SGN d 505     -16.196  57.657 175.447  0.00  0.00    -0.572 OA
ATOM     86  O4S SGN d 505     -14.742  56.294 176.813  0.00  0.00    -0.572 OA
ATOM     87  O5S SGN d 505     -14.503  56.301 174.397  0.00  0.00    -0.572 OA
ENDBRANCH  83  84
ENDBRANCH  82  83
ENDBRANCH  58  82
ENDBRANCH  52  53
ENDBRANCH   7  52
TORSDOF 27

ENDMDL
MODEL 22
REMARK VINA RESULT:       4.1      3.852      9.190
REMARK  27 active torsions:
REMARK  status: ('A' for Active; 'I' for Inactive)
REMARK    1  A    between atoms: C2_1  and  O2_78 
REMARK    2  A    between atoms: C1_3  and  O4_50 
REMARK    3  A    between atoms: O4_5  and  C4_58 
REMARK    4  A    between atoms: O4_5  and  C1_27 
REMARK    5  A    between atoms: C2_6  and  N_39 
REMARK    6  A    between atoms: S1_9  and  N_39 
REMARK    7  A    between atoms: C6_10  and  C5_52 
REMARK    8  A    between atoms: C2_12  and  N_73 
REMARK    9  A    between atoms: C2_19  and  O2_24 
REMARK   10  A    between atoms: C2_21  and  O2_44 
REMARK   11  A    between atoms: S2_23  and  O6_65 
REMARK   12  A    between atoms: O2_24  and  S_54 
REMARK   13  A    between atoms: C1_28  and  O4_60 
REMARK   14  A    between atoms: C5_29  and  C6_38 
REMARK   15  A    between atoms: C5_30  and  C6_33 
REMARK   16  A    between atoms: S1_34  and  N_73 
REMARK   17  A    between atoms: C5_41  and  C6_46 
REMARK   18  A    between atoms: S_43  and  O2_44 
REMARK   19  A    between atoms: C6_46  and  O6_72 
REMARK   20  A    between atoms: O4_50  and  C4_71 
REMARK   21  A    between atoms: C1_56  and  O4_64 
REMARK   22  A    between atoms: O4_60  and  C4_83 
REMARK   23  A    between atoms: C4_61  and  O4_64 
REMARK   24  A    between atoms: S2_63  and  O6_72 
REMARK   25  A    between atoms: O6_65  and  C6_67 
REMARK   26  A    between atoms: C6_67  and  C5_75 
REMARK   27  A    between atoms: S_76  and  O2_78 
ROOT
ATOM      1  C2  IDS d 504     -20.458  46.910 175.138  0.00  0.00     0.226 C 
ATOM      2  O3  IDS d 504     -20.189  47.071 177.570  0.00  0.00    -0.218 OA
ATOM      3  O5  IDS d 504     -18.129  47.504 174.743  0.00  0.00    -0.318 OA
ATOM      4  C5  IDS d 504     -18.010  48.173 175.978  0.00  0.00     0.234 C 
ATOM      5  C1  IDS d 504     -19.076  46.431 174.744  0.00  0.00     0.269 C 
ATOM      6  C3  IDS d 504     -20.432  47.850 176.405  0.00  0.00     0.216 C 
ATOM      7  C4  IDS d 504     -19.319  48.882 176.317  0.00  0.00     0.189 C 
ENDROOT
BRANCH   5   8
ATOM      8  O4  SGN d 503     -18.709  45.392 175.605  0.00  0.00    -0.326 OA
BRANCH   8   9
ATOM      9  C4  SGN d 503     -17.886  44.436 175.021  0.00  0.00     0.180 C 
ATOM     10  C3  SGN d 503     -18.037  44.528 173.504  0.00  0.00     0.210 C 
ATOM     11  C2  SGN d 503     -16.983  43.643 172.864  0.00  0.00     0.207 C 
ATOM     12  O3  SGN d 503     -19.329  44.064 173.161  0.00  0.00    -0.218 OA
ATOM     13  C1  SGN d 503     -15.576  43.974 173.381  0.00  0.00     0.263 C 
ATOM     14  O5  SGN d 503     -15.550  43.856 174.782  0.00  0.00    -0.327 OA
ATOM     15  C5  SGN d 503     -16.430  44.723 175.427  0.00  0.00     0.179 C 
BRANCH  11  16
ATOM     16  N   SGN d 503     -17.026  43.732 171.415  0.00  0.00    -0.162 NA
BRANCH  16  17
ATOM     17  S1  SGN d 503     -17.371  42.374 170.587  0.00  0.00     0.227 S 
ATOM     18  O1S SGN d 503     -16.103  41.864 170.101  0.00  0.00    -0.577 OA
ATOM     19  O2S SGN d 503     -18.027  41.438 171.499  0.00  0.00    -0.577 OA
ATOM     20  O3S SGN d 503     -18.224  42.845 169.519  0.00  0.00    -0.577 OA
ENDBRANCH  16  17
ENDBRANCH  11  16
BRANCH  13  21
ATOM     21  O4  IDS d 502     -15.178  45.253 172.968  0.00  0.00    -0.326 OA
BRANCH  21  22
ATOM     22  C4  IDS d 502     -13.962  45.293 172.266  0.00  0.00     0.189 C 
ATOM     23  C3  IDS d 502     -14.193  45.887 170.864  0.00  0.00     0.216 C 
ATOM     24  O3  IDS d 502     -13.012  45.736 170.101  0.00  0.00    -0.218 OA
ATOM     25  C2  IDS d 502     -14.516  47.381 170.948  0.00  0.00     0.229 C 
ATOM     26  C1  IDS d 502     -13.532  48.126 171.845  0.00  0.00     0.301 C 
ATOM     27  O1  IDS d 502     -12.313  48.226 171.158  0.00  0.00    -0.187 OA
ATOM     28  O5  IDS d 502     -13.399  47.495 173.093  0.00  0.00    -0.316 OA
ATOM     29  C5  IDS d 502     -12.960  46.152 173.035  0.00  0.00     0.234 C 
BRANCH  25  30
ATOM     30  O2  IDS d 502     -15.795  47.500 171.513  0.00  0.00    -0.232 OA
BRANCH  30  31
ATOM     31  S   IDS d 502     -17.117  47.942 170.804  0.00  0.00     0.252 S 
ATOM     32  O3S IDS d 502     -17.336  49.295 171.246  0.00  0.00    -0.572 OA
ATOM     33  O2S IDS d 502     -18.131  47.013 171.245  0.00  0.00    -0.572 OA
ATOM     34  O1S IDS d 502     -16.887  47.867 169.388  0.00  0.00    -0.572 OA
ENDBRANCH  30  31
ENDBRANCH  25  30
BRANCH  29  35
ATOM     35  C6  IDS d 502     -12.630  45.632 174.427  0.00  0.00     0.216 C 
ATOM     36  O61 IDS d 502     -12.164  44.531 174.590  0.00  0.00    -0.646 OA
ATOM     37  O62 IDS d 502     -12.823  46.317 175.413  0.00  0.00    -0.646 OA
ENDBRANCH  29  35
ENDBRANCH  21  22
ENDBRANCH  13  21
BRANCH  15  38
ATOM     38  C6  SGN d 503     -16.144  44.533 176.892  0.00  0.00     0.198 C 
BRANCH  38  39
ATOM     39  O6  SGN d 503     -17.153  43.698 177.417  0.00  0.00    -0.235 OA
BRANCH  39  40
ATOM     40  S2  SGN d 503     -16.936  42.276 178.000  0.00  0.00     0.252 S 
ATOM     41  O4S SGN d 503     -15.642  42.229 178.593  0.00  0.00    -0.572 OA
ATOM     42  O5S SGN d 503     -17.994  42.049 178.979  0.00  0.00    -0.572 OA
ATOM     43  O6S SGN d 503     -16.980  41.439 176.866  0.00  0.00    -0.572 OA
ENDBRANCH  39  40
ENDBRANCH  38  39
ENDBRANCH  15  38
ENDBRANCH   8   9
ENDBRANCH   5   8
BRANCH   1  44
ATOM     44  O2  IDS d 504     -21.031  47.592 174.024  0.00  0.00    -0.233 OA
BRANCH  44  45
ATOM     45  S   IDS d 504     -22.319  47.208 173.273  0.00  0.00     0.252 S 
ATOM     46  O3S IDS d 504     -22.281  45.794 173.246  0.00  0.00    -0.572 OA
ATOM     47  O2S IDS d 504     -22.275  47.838 171.986  0.00  0.00    -0.572 OA
ATOM     48  O1S IDS d 504     -23.397  47.694 174.055  0.00  0.00    -0.572 OA
ENDBRANCH  44  45
ENDBRANCH   1  44
BRANCH   4  49
ATOM     49  C6  IDS d 504     -16.760  49.069 175.985  0.00  0.00     0.216 C 
ATOM     50  O62 IDS d 504     -16.245  49.452 174.933  0.00  0.00    -0.646 OA
ATOM     51  O61 IDS d 504     -16.236  49.410 177.038  0.00  0.00    -0.646 OA
ENDBRANCH   4  49
BRANCH   7  52
ATOM     52  O4  IDS d 504     -19.636  49.831 175.309  0.00  0.00    -0.326 OA
BRANCH  52  53
ATOM     53  C1  SGN d 505     -20.300  50.968 175.789  0.00  0.00     0.263 C 
ATOM     54  C2  SGN d 505     -20.965  51.741 174.666  0.00  0.00     0.207 C 
ATOM     55  C3  SGN d 505     -19.909  52.344 173.719  0.00  0.00     0.210 C 
ATOM     56  C4  SGN d 505     -19.001  53.236 174.616  0.00  0.00     0.180 C 
ATOM     57  O3  SGN d 505     -20.578  53.135 172.745  0.00  0.00    -0.218 OA
ATOM     58  C5  SGN d 505     -18.406  52.336 175.650  0.00  0.00     0.179 C 
ATOM     59  O5  SGN d 505     -19.406  51.806 176.465  0.00  0.00    -0.327 OA
BRANCH  54  60
ATOM     60  N   SGN d 505     -21.982  50.882 174.017  0.00  0.00    -0.162 NA
BRANCH  60  61
ATOM     61  S1  SGN d 505     -23.586  51.348 174.148  0.00  0.00     0.227 S 
ATOM     62  O3S SGN d 505     -24.100  50.737 175.322  0.00  0.00    -0.577 OA
ATOM     63  O1S SGN d 505     -23.619  52.795 174.203  0.00  0.00    -0.577 OA
ATOM     64  O2S SGN d 505     -24.224  50.827 172.962  0.00  0.00    -0.577 OA
ENDBRANCH  60  61
ENDBRANCH  54  60
BRANCH  56  65
ATOM     65  O4  SGN d 505     -17.908  53.844 173.960  0.00  0.00    -0.326 OA
BRANCH  65  66
ATOM     66  C1  IDS d 506     -17.922  55.152 173.498  0.00  0.00     0.269 C 
ATOM     67  C2  IDS d 506     -16.611  55.428 172.750  0.00  0.00     0.226 C 
ATOM     68  C3  IDS d 506     -16.362  56.939 172.482  0.00  0.00     0.219 C 
ATOM     69  O3  IDS d 506     -17.072  57.312 171.304  0.00  0.00    -0.218 OA
ATOM     70  C4  IDS d 506     -16.812  57.857 173.638  0.00  0.00     0.223 C 
ATOM     71  O4  IDS d 506     -15.788  57.845 174.604  0.00  0.00    -0.217 OA
ATOM     72  C5  IDS d 506     -18.116  57.346 174.260  0.00  0.00     0.237 C 
ATOM     73  O5  IDS d 506     -17.986  56.008 174.611  0.00  0.00    -0.318 OA
BRANCH  67  74
ATOM     74  O2  IDS d 506     -15.511  54.960 173.506  0.00  0.00    -0.233 OA
BRANCH  74  75
ATOM     75  S   IDS d 506     -14.225  54.180 172.993  0.00  0.00     0.252 S 
ATOM     76  O1S IDS d 506     -13.879  54.807 171.754  0.00  0.00    -0.572 OA
ATOM     77  O2S IDS d 506     -13.183  54.350 173.966  0.00  0.00    -0.572 OA
ATOM     78  O3S IDS d 506     -14.643  52.804 172.838  0.00  0.00    -0.572 OA
ENDBRANCH  74  75
ENDBRANCH  67  74
BRANCH  72  79
ATOM     79  C6  IDS d 506     -18.655  58.127 175.444  0.00  0.00     0.217 C 
ATOM     80  O61 IDS d 506     -18.622  59.350 175.437  0.00  0.00    -0.646 OA
ATOM     81  O62 IDS d 506     -19.115  57.573 176.428  0.00  0.00    -0.646 OA
ENDBRANCH  72  79
ENDBRANCH  65  66
ENDBRANCH  56  65
BRANCH  58  82
ATOM     82  C6  SGN d 505     -17.456  53.045 176.559  0.00  0.00     0.198 C 
BRANCH  82  83
ATOM     83  O6  SGN d 505     -16.213  52.494 176.286  0.00  0.00    -0.235 OA
BRANCH  83  84
ATOM     84  S2  SGN d 505     -14.895  52.807 176.979  0.00  0.00     0.252 S 
ATOM     85  O6S SGN d 505     -14.713  54.251 176.911  0.00  0.00    -0.572 OA
ATOM     86  O4S SGN d 505     -15.068  52.329 178.332  0.00  0.00    -0.572 OA
ATOM     87  O5S SGN d 505     -13.905  52.090 176.214  0.00  0.00    -0.572 OA
ENDBRANCH  83  84
ENDBRANCH  82  83
ENDBRANCH  58  82
ENDBRANCH  52  53
ENDBRANCH   7  52
TORSDOF 27

ENDMDL
MODEL 23
REMARK VINA RESULT:       4.1      2.994     10.320
REMARK  27 active torsions:
REMARK  status: ('A' for Active; 'I' for Inactive)
REMARK    1  A    between atoms: C2_1  and  O2_78 
REMARK    2  A    between atoms: C1_3  and  O4_50 
REMARK    3  A    between atoms: O4_5  and  C4_58 
REMARK    4  A    between atoms: O4_5  and  C1_27 
REMARK    5  A    between atoms: C2_6  and  N_39 
REMARK    6  A    between atoms: S1_9  and  N_39 
REMARK    7  A    between atoms: C6_10  and  C5_52 
REMARK    8  A    between atoms: C2_12  and  N_73 
REMARK    9  A    between atoms: C2_19  and  O2_24 
REMARK   10  A    between atoms: C2_21  and  O2_44 
REMARK   11  A    between atoms: S2_23  and  O6_65 
REMARK   12  A    between atoms: O2_24  and  S_54 
REMARK   13  A    between atoms: C1_28  and  O4_60 
REMARK   14  A    between atoms: C5_29  and  C6_38 
REMARK   15  A    between atoms: C5_30  and  C6_33 
REMARK   16  A    between atoms: S1_34  and  N_73 
REMARK   17  A    between atoms: C5_41  and  C6_46 
REMARK   18  A    between atoms: S_43  and  O2_44 
REMARK   19  A    between atoms: C6_46  and  O6_72 
REMARK   20  A    between atoms: O4_50  and  C4_71 
REMARK   21  A    between atoms: C1_56  and  O4_64 
REMARK   22  A    between atoms: O4_60  and  C4_83 
REMARK   23  A    between atoms: C4_61  and  O4_64 
REMARK   24  A    between atoms: S2_63  and  O6_72 
REMARK   25  A    between atoms: O6_65  and  C6_67 
REMARK   26  A    between atoms: C6_67  and  C5_75 
REMARK   27  A    between atoms: S_76  and  O2_78 
ROOT
ATOM      1  C2  IDS d 504     -13.758  50.613 175.772  0.00  0.00     0.226 C 
ATOM      2  O3  IDS d 504     -12.908  52.067 173.989  0.00  0.00    -0.218 OA
ATOM      3  O5  IDS d 504     -14.468  48.912 174.179  0.00  0.00    -0.318 OA
ATOM      4  C5  IDS d 504     -14.572  49.836 173.120  0.00  0.00     0.234 C 
ATOM      5  C1  IDS d 504     -13.487  49.252 175.164  0.00  0.00     0.269 C 
ATOM      6  C3  IDS d 504     -14.095  51.703 174.683  0.00  0.00     0.216 C 
ATOM      7  C4  IDS d 504     -15.077  51.179 173.646  0.00  0.00     0.189 C 
ENDROOT
BRANCH   5   8
ATOM      8  O4  SGN d 503     -12.187  49.252 174.647  0.00  0.00    -0.326 OA
BRANCH   8   9
ATOM      9  C4  SGN d 503     -11.621  47.987 174.537  0.00  0.00     0.180 C 
ATOM     10  C3  SGN d 503     -12.387  47.032 175.449  0.00  0.00     0.210 C 
ATOM     11  C2  SGN d 503     -11.915  45.618 175.165  0.00  0.00     0.207 C 
ATOM     12  O3  SGN d 503     -12.096  47.377 176.790  0.00  0.00    -0.218 OA
ATOM     13  C1  SGN d 503     -12.012  45.279 173.670  0.00  0.00     0.263 C 
ATOM     14  O5  SGN d 503     -11.272  46.216 172.927  0.00  0.00    -0.327 OA
ATOM     15  C5  SGN d 503     -11.730  47.524 173.073  0.00  0.00     0.179 C 
BRANCH  11  16
ATOM     16  N   SGN d 503     -12.650  44.646 175.955  0.00  0.00    -0.162 NA
BRANCH  16  17
ATOM     17  S1  SGN d 503     -11.790  43.638 176.899  0.00  0.00     0.227 S 
ATOM     18  O1S SGN d 503     -11.935  44.132 178.256  0.00  0.00    -0.577 OA
ATOM     19  O2S SGN d 503     -12.335  42.290 176.745  0.00  0.00    -0.577 OA
ATOM     20  O3S SGN d 503     -10.442  43.784 176.398  0.00  0.00    -0.577 OA
ENDBRANCH  16  17
ENDBRANCH  11  16
BRANCH  13  21
ATOM     21  O4  IDS d 502     -13.349  45.234 173.252  0.00  0.00    -0.326 OA
BRANCH  21  22
ATOM     22  C4  IDS d 502     -13.756  44.001 172.717  0.00  0.00     0.189 C 
ATOM     23  C3  IDS d 502     -14.865  43.396 173.599  0.00  0.00     0.216 C 
ATOM     24  O3  IDS d 502     -15.124  42.074 173.169  0.00  0.00    -0.218 OA
ATOM     25  C2  IDS d 502     -16.164  44.198 173.475  0.00  0.00     0.229 C 
ATOM     26  C1  IDS d 502     -16.529  44.467 172.018  0.00  0.00     0.301 C 
ATOM     27  O1  IDS d 502     -16.985  43.264 171.459  0.00  0.00    -0.187 OA
ATOM     28  O5  IDS d 502     -15.444  45.014 171.311  0.00  0.00    -0.316 OA
ATOM     29  C5  IDS d 502     -14.280  44.211 171.298  0.00  0.00     0.234 C 
BRANCH  25  30
ATOM     30  O2  IDS d 502     -15.952  45.433 174.105  0.00  0.00    -0.232 OA
BRANCH  30  31
ATOM     31  S   IDS d 502     -16.727  46.031 175.325  0.00  0.00     0.252 S 
ATOM     32  O3S IDS d 502     -15.705  46.356 176.286  0.00  0.00    -0.572 OA
ATOM     33  O2S IDS d 502     -17.631  44.993 175.765  0.00  0.00    -0.572 OA
ATOM     34  O1S IDS d 502     -17.422  47.198 174.859  0.00  0.00    -0.572 OA
ENDBRANCH  30  31
ENDBRANCH  25  30
BRANCH  29  35
ATOM     35  C6  IDS d 502     -13.250  44.774 170.329  0.00  0.00     0.216 C 
ATOM     36  O61 IDS d 502     -13.506  45.716 169.619  0.00  0.00    -0.646 OA
ATOM     37  O62 IDS d 502     -12.137  44.291 170.248  0.00  0.00    -0.646 OA
ENDBRANCH  29  35
ENDBRANCH  21  22
ENDBRANCH  13  21
BRANCH  15  38
ATOM     38  C6  SGN d 503     -10.904  48.325 172.104  0.00  0.00     0.198 C 
BRANCH  38  39
ATOM     39  O6  SGN d 503     -11.188  47.847 170.807  0.00  0.00    -0.235 OA
BRANCH  39  40
ATOM     40  S2  SGN d 503     -10.817  48.561 169.480  0.00  0.00     0.252 S 
ATOM     41  O4S SGN d 503     -10.335  47.583 168.566  0.00  0.00    -0.572 OA
ATOM     42  O5S SGN d 503     -12.028  49.214 168.993  0.00  0.00    -0.572 OA
ATOM     43  O6S SGN d 503      -9.773  49.435 169.850  0.00  0.00    -0.572 OA
ENDBRANCH  39  40
ENDBRANCH  38  39
ENDBRANCH  15  38
ENDBRANCH   8   9
ENDBRANCH   5   8
BRANCH   1  44
ATOM     44  O2  IDS d 504     -14.835  50.484 176.698  0.00  0.00    -0.233 OA
BRANCH  44  45
ATOM     45  S   IDS d 504     -14.895  51.057 178.125  0.00  0.00     0.252 S 
ATOM     46  O3S IDS d 504     -13.951  52.111 178.101  0.00  0.00    -0.572 OA
ATOM     47  O2S IDS d 504     -14.587  49.992 179.034  0.00  0.00    -0.572 OA
ATOM     48  O1S IDS d 504     -16.217  51.534 178.310  0.00  0.00    -0.572 OA
ENDBRANCH  44  45
ENDBRANCH   1  44
BRANCH   4  49
ATOM     49  C6  IDS d 504     -15.391  49.239 171.964  0.00  0.00     0.216 C 
ATOM     50  O62 IDS d 504     -15.552  49.859 170.911  0.00  0.00    -0.646 OA
ATOM     51  O61 IDS d 504     -15.918  48.139 172.068  0.00  0.00    -0.646 OA
ENDBRANCH   4  49
BRANCH   7  52
ATOM     52  O4  IDS d 504     -16.354  51.020 174.246  0.00  0.00    -0.326 OA
BRANCH  52  53
ATOM     53  C1  SGN d 505     -17.346  51.841 173.691  0.00  0.00     0.263 C 
ATOM     54  C2  SGN d 505     -18.323  52.324 174.746  0.00  0.00     0.207 C 
ATOM     55  C3  SGN d 505     -19.141  51.147 175.313  0.00  0.00     0.210 C 
ATOM     56  C4  SGN d 505     -19.843  50.494 174.087  0.00  0.00     0.180 C 
ATOM     57  O3  SGN d 505     -20.103  51.663 176.223  0.00  0.00    -0.218 OA
ATOM     58  C5  SGN d 505     -18.759  50.053 173.158  0.00  0.00     0.179 C 
ATOM     59  O5  SGN d 505     -18.043  51.155 172.690  0.00  0.00    -0.327 OA
BRANCH  54  60
ATOM     60  N   SGN d 505     -17.597  53.134 175.751  0.00  0.00    -0.162 NA
BRANCH  60  61
ATOM     61  S1  SGN d 505     -17.958  54.768 175.834  0.00  0.00     0.227 S 
ATOM     62  O3S SGN d 505     -19.266  54.877 176.374  0.00  0.00    -0.577 OA
ATOM     63  O1S SGN d 505     -16.951  55.397 176.663  0.00  0.00    -0.577 OA
ATOM     64  O2S SGN d 505     -17.912  55.229 174.466  0.00  0.00    -0.577 OA
ENDBRANCH  60  61
ENDBRANCH  54  60
BRANCH  56  65
ATOM     65  O4  SGN d 505     -20.605  49.337 174.367  0.00  0.00    -0.326 OA
BRANCH  65  66
ATOM     66  C1  IDS d 506     -21.562  49.273 175.367  0.00  0.00     0.269 C 
ATOM     67  C2  IDS d 506     -21.870  47.798 175.667  0.00  0.00     0.226 C 
ATOM     68  C3  IDS d 506     -23.154  47.598 176.517  0.00  0.00     0.219 C 
ATOM     69  O3  IDS d 506     -22.819  47.771 177.892  0.00  0.00    -0.218 OA
ATOM     70  C4  IDS d 506     -24.293  48.579 176.163  0.00  0.00     0.223 C 
ATOM     71  O4  IDS d 506     -24.948  48.066 175.027  0.00  0.00    -0.217 OA
ATOM     72  C5  IDS d 506     -23.732  49.971 175.853  0.00  0.00     0.237 C 
ATOM     73  O5  IDS d 506     -22.735  49.881 174.889  0.00  0.00    -0.318 OA
BRANCH  67  74
ATOM     74  O2  IDS d 506     -22.062  47.087 174.460  0.00  0.00    -0.233 OA
BRANCH  74  75
ATOM     75  S   IDS d 506     -21.808  45.544 174.176  0.00  0.00     0.252 S 
ATOM     76  O1S IDS d 506     -21.100  45.507 172.933  0.00  0.00    -0.572 OA
ATOM     77  O2S IDS d 506     -21.004  45.020 175.243  0.00  0.00    -0.572 OA
ATOM     78  O3S IDS d 506     -23.122  44.943 174.101  0.00  0.00    -0.572 OA
ENDBRANCH  74  75
ENDBRANCH  67  74
BRANCH  72  79
ATOM     79  C6  IDS d 506     -24.737  51.031 175.441  0.00  0.00     0.217 C 
ATOM     80  O61 IDS d 506     -25.546  51.456 176.254  0.00  0.00    -0.646 OA
ATOM     81  O62 IDS d 506     -24.781  51.473 174.305  0.00  0.00    -0.646 OA
ENDBRANCH  72  79
ENDBRANCH  65  66
ENDBRANCH  56  65
BRANCH  58  82
ATOM     82  C6  SGN d 505     -19.283  49.349 171.949  0.00  0.00     0.198 C 
BRANCH  82  83
ATOM     83  O6  SGN d 505     -20.059  50.289 171.289  0.00  0.00    -0.235 OA
BRANCH  83  84
ATOM     84  S2  SGN d 505     -21.337  50.040 170.501  0.00  0.00     0.252 S 
ATOM     85  O6S SGN d 505     -21.588  51.237 169.710  0.00  0.00    -0.572 OA
ATOM     86  O4S SGN d 505     -21.047  48.883 169.686  0.00  0.00    -0.572 OA
ATOM     87  O5S SGN d 505     -22.347  49.823 171.508  0.00  0.00    -0.572 OA
ENDBRANCH  83  84
ENDBRANCH  82  83
ENDBRANCH  58  82
ENDBRANCH  52  53
ENDBRANCH   7  52
TORSDOF 27

ENDMDL
MODEL 24
REMARK VINA RESULT:       4.2      2.762      5.156
REMARK  27 active torsions:
REMARK  status: ('A' for Active; 'I' for Inactive)
REMARK    1  A    between atoms: C2_1  and  O2_78 
REMARK    2  A    between atoms: C1_3  and  O4_50 
REMARK    3  A    between atoms: O4_5  and  C4_58 
REMARK    4  A    between atoms: O4_5  and  C1_27 
REMARK    5  A    between atoms: C2_6  and  N_39 
REMARK    6  A    between atoms: S1_9  and  N_39 
REMARK    7  A    between atoms: C6_10  and  C5_52 
REMARK    8  A    between atoms: C2_12  and  N_73 
REMARK    9  A    between atoms: C2_19  and  O2_24 
REMARK   10  A    between atoms: C2_21  and  O2_44 
REMARK   11  A    between atoms: S2_23  and  O6_65 
REMARK   12  A    between atoms: O2_24  and  S_54 
REMARK   13  A    between atoms: C1_28  and  O4_60 
REMARK   14  A    between atoms: C5_29  and  C6_38 
REMARK   15  A    between atoms: C5_30  and  C6_33 
REMARK   16  A    between atoms: S1_34  and  N_73 
REMARK   17  A    between atoms: C5_41  and  C6_46 
REMARK   18  A    between atoms: S_43  and  O2_44 
REMARK   19  A    between atoms: C6_46  and  O6_72 
REMARK   20  A    between atoms: O4_50  and  C4_71 
REMARK   21  A    between atoms: C1_56  and  O4_64 
REMARK   22  A    between atoms: O4_60  and  C4_83 
REMARK   23  A    between atoms: C4_61  and  O4_64 
REMARK   24  A    between atoms: S2_63  and  O6_72 
REMARK   25  A    between atoms: O6_65  and  C6_67 
REMARK   26  A    between atoms: C6_67  and  C5_75 
REMARK   27  A    between atoms: S_76  and  O2_78 
ROOT
ATOM      1  C2  IDS d 504     -19.803  49.733 174.857  0.00  0.00     0.226 C 
ATOM      2  O3  IDS d 504     -20.095  49.456 177.277  0.00  0.00    -0.218 OA
ATOM      3  O5  IDS d 504     -19.073  47.426 174.583  0.00  0.00    -0.318 OA
ATOM      4  C5  IDS d 504     -18.645  47.321 175.922  0.00  0.00     0.234 C 
ATOM      5  C1  IDS d 504     -20.156  48.339 174.380  0.00  0.00     0.269 C 
ATOM      6  C3  IDS d 504     -19.119  49.729 176.279  0.00  0.00     0.216 C 
ATOM      7  C4  IDS d 504     -18.054  48.649 176.388  0.00  0.00     0.189 C 
ENDROOT
BRANCH   5   8
ATOM      8  O4  SGN d 503     -21.326  47.935 175.031  0.00  0.00    -0.326 OA
BRANCH   8   9
ATOM      9  C4  SGN d 503     -22.026  46.934 174.367  0.00  0.00     0.180 C 
ATOM     10  C3  SGN d 503     -21.793  47.092 172.867  0.00  0.00     0.210 C 
ATOM     11  C2  SGN d 503     -22.371  45.879 172.162  0.00  0.00     0.207 C 
ATOM     12  O3  SGN d 503     -22.463  48.263 172.438  0.00  0.00    -0.218 OA
ATOM     13  C1  SGN d 503     -21.827  44.569 172.752  0.00  0.00     0.263 C 
ATOM     14  O5  SGN d 503     -22.098  44.527 174.131  0.00  0.00    -0.327 OA
ATOM     15  C5  SGN d 503     -21.503  45.567 174.843  0.00  0.00     0.179 C 
BRANCH  11  16
ATOM     16  N   SGN d 503     -22.127  45.931 170.731  0.00  0.00    -0.162 NA
BRANCH  16  17
ATOM     17  S1  SGN d 503     -23.371  45.580 169.742  0.00  0.00     0.227 S 
ATOM     18  O1S SGN d 503     -23.257  46.483 168.613  0.00  0.00    -0.577 OA
ATOM     19  O2S SGN d 503     -23.253  44.180 169.340  0.00  0.00    -0.577 OA
ATOM     20  O3S SGN d 503     -24.532  45.858 170.558  0.00  0.00    -0.577 OA
ENDBRANCH  16  17
ENDBRANCH  11  16
BRANCH  13  21
ATOM     21  O4  IDS d 502     -20.456  44.435 172.494  0.00  0.00    -0.326 OA
BRANCH  21  22
ATOM     22  C4  IDS d 502     -20.096  43.251 171.831  0.00  0.00     0.189 C 
ATOM     23  C3  IDS d 502     -19.518  43.591 170.444  0.00  0.00     0.216 C 
ATOM     24  O3  IDS d 502     -19.348  42.393 169.711  0.00  0.00    -0.218 OA
ATOM     25  C2  IDS d 502     -18.150  44.268 170.571  0.00  0.00     0.229 C 
ATOM     26  C1  IDS d 502     -17.227  43.511 171.522  0.00  0.00     0.301 C 
ATOM     27  O1  IDS d 502     -16.808  42.339 170.875  0.00  0.00    -0.187 OA
ATOM     28  O5  IDS d 502     -17.859  43.254 172.751  0.00  0.00    -0.316 OA
ATOM     29  C5  IDS d 502     -19.053  42.502 172.658  0.00  0.00     0.234 C 
BRANCH  25  30
ATOM     30  O2  IDS d 502     -18.367  45.548 171.101  0.00  0.00    -0.232 OA
BRANCH  30  31
ATOM     31  S   IDS d 502     -17.894  46.920 170.516  0.00  0.00     0.252 S 
ATOM     32  O3S IDS d 502     -19.066  47.475 169.890  0.00  0.00    -0.572 OA
ATOM     33  O2S IDS d 502     -16.831  46.608 169.589  0.00  0.00    -0.572 OA
ATOM     34  O1S IDS d 502     -17.440  47.720 171.619  0.00  0.00    -0.572 OA
ENDBRANCH  30  31
ENDBRANCH  25  30
BRANCH  29  35
ATOM     35  C6  IDS d 502     -19.535  42.084 174.040  0.00  0.00     0.216 C 
ATOM     36  O61 IDS d 502     -20.566  41.474 174.186  0.00  0.00    -0.646 OA
ATOM     37  O62 IDS d 502     -18.889  42.350 175.035  0.00  0.00    -0.646 OA
ENDBRANCH  29  35
ENDBRANCH  21  22
ENDBRANCH  13  21
BRANCH  15  38
ATOM     38  C6  SGN d 503     -21.798  45.256 176.286  0.00  0.00     0.198 C 
BRANCH  38  39
ATOM     39  O6  SGN d 503     -20.681  44.572 176.810  0.00  0.00    -0.235 OA
BRANCH  39  40
ATOM     40  S2  SGN d 503     -20.677  43.697 178.092  0.00  0.00     0.252 S 
ATOM     41  O4S SGN d 503     -19.330  43.354 178.395  0.00  0.00    -0.572 OA
ATOM     42  O5S SGN d 503     -21.291  44.490 179.153  0.00  0.00    -0.572 OA
ATOM     43  O6S SGN d 503     -21.397  42.545 177.712  0.00  0.00    -0.572 OA
ENDBRANCH  39  40
ENDBRANCH  38  39
ENDBRANCH  15  38
ENDBRANCH   8   9
ENDBRANCH   5   8
BRANCH   1  44
ATOM     44  O2  IDS d 504     -18.942  50.333 173.891  0.00  0.00    -0.233 OA
BRANCH  44  45
ATOM     45  S   IDS d 504     -19.368  51.187 172.684  0.00  0.00     0.252 S 
ATOM     46  O3S IDS d 504     -18.243  52.012 172.445  0.00  0.00    -0.572 OA
ATOM     47  O2S IDS d 504     -20.563  51.889 173.049  0.00  0.00    -0.572 OA
ATOM     48  O1S IDS d 504     -19.599  50.284 171.616  0.00  0.00    -0.572 OA
ENDBRANCH  44  45
ENDBRANCH   1  44
BRANCH   4  49
ATOM     49  C6  IDS d 504     -17.727  46.100 176.099  0.00  0.00     0.216 C 
ATOM     50  O62 IDS d 504     -17.266  45.804 177.203  0.00  0.00    -0.646 OA
ATOM     51  O61 IDS d 504     -17.416  45.402 175.142  0.00  0.00    -0.646 OA
ENDBRANCH   4  49
BRANCH   7  52
ATOM     52  O4  IDS d 504     -16.943  49.002 175.576  0.00  0.00    -0.326 OA
BRANCH  52  53
ATOM     53  C1  SGN d 505     -15.727  49.056 176.271  0.00  0.00     0.263 C 
ATOM     54  C2  SGN d 505     -14.869  50.215 175.803  0.00  0.00     0.207 C 
ATOM     55  C3  SGN d 505     -14.411  50.002 174.346  0.00  0.00     0.210 C 
ATOM     56  C4  SGN d 505     -13.654  48.642 174.338  0.00  0.00     0.180 C 
ATOM     57  O3  SGN d 505     -13.535  51.063 173.989  0.00  0.00    -0.218 OA
ATOM     58  C5  SGN d 505     -14.629  47.607 174.798  0.00  0.00     0.179 C 
ATOM     59  O5  SGN d 505     -15.020  47.859 176.113  0.00  0.00    -0.327 OA
BRANCH  54  60
ATOM     60  N   SGN d 505     -15.580  51.488 176.064  0.00  0.00    -0.162 NA
BRANCH  60  61
ATOM     61  S1  SGN d 505     -15.256  52.273 177.509  0.00  0.00     0.227 S 
ATOM     62  O3S SGN d 505     -13.981  51.825 177.946  0.00  0.00    -0.577 OA
ATOM     63  O1S SGN d 505     -15.298  53.697 177.252  0.00  0.00    -0.577 OA
ATOM     64  O2S SGN d 505     -16.301  51.843 178.408  0.00  0.00    -0.577 OA
ENDBRANCH  60  61
ENDBRANCH  54  60
BRANCH  56  65
ATOM     65  O4  SGN d 505     -13.198  48.206 173.075  0.00  0.00    -0.326 OA
BRANCH  65  66
ATOM     66  C1  IDS d 506     -11.976  48.573 172.533  0.00  0.00     0.269 C 
ATOM     67  C2  IDS d 506     -11.798  47.864 171.182  0.00  0.00     0.226 C 
ATOM     68  C3  IDS d 506     -10.342  47.925 170.642  0.00  0.00     0.219 C 
ATOM     69  O3  IDS d 506     -10.160  49.170 169.972  0.00  0.00    -0.218 OA
ATOM     70  C4  IDS d 506      -9.266  47.797 171.741  0.00  0.00     0.223 C 
ATOM     71  O4  IDS d 506      -9.118  46.426 172.025  0.00  0.00    -0.217 OA
ATOM     72  C5  IDS d 506      -9.694  48.544 173.009  0.00  0.00     0.237 C 
ATOM     73  O5  IDS d 506     -10.962  48.132 173.400  0.00  0.00    -0.318 OA
BRANCH  67  74
ATOM     74  O2  IDS d 506     -12.132  46.495 171.304  0.00  0.00    -0.233 OA
BRANCH  74  75
ATOM     75  S   IDS d 506     -13.194  45.663 170.464  0.00  0.00     0.252 S 
ATOM     76  O1S IDS d 506     -12.542  44.424 170.166  0.00  0.00    -0.572 OA
ATOM     77  O2S IDS d 506     -14.350  45.452 171.289  0.00  0.00    -0.572 OA
ATOM     78  O3S IDS d 506     -13.468  46.460 169.288  0.00  0.00    -0.572 OA
ENDBRANCH  74  75
ENDBRANCH  67  74
BRANCH  72  79
ATOM     79  C6  IDS d 506      -8.751  48.465 174.195  0.00  0.00     0.217 C 
ATOM     80  O61 IDS d 506      -7.548  48.615 174.030  0.00  0.00    -0.646 OA
ATOM     81  O62 IDS d 506      -9.149  48.238 175.324  0.00  0.00    -0.646 OA
ENDBRANCH  72  79
ENDBRANCH  65  66
ENDBRANCH  56  65
BRANCH  58  82
ATOM     82  C6  SGN d 505     -14.057  46.227 174.788  0.00  0.00     0.198 C 
BRANCH  82  83
ATOM     83  O6  SGN d 505     -13.668  45.985 176.097  0.00  0.00    -0.235 OA
BRANCH  83  84
ATOM     84  S2  SGN d 505     -12.248  45.928 176.640  0.00  0.00     0.252 S 
ATOM     85  O6S SGN d 505     -11.885  47.287 177.021  0.00  0.00    -0.572 OA
ATOM     86  O4S SGN d 505     -12.323  45.033 177.772  0.00  0.00    -0.572 OA
ATOM     87  O5S SGN d 505     -11.459  45.435 175.539  0.00  0.00    -0.572 OA
ENDBRANCH  83  84
ENDBRANCH  82  83
ENDBRANCH  58  82
ENDBRANCH  52  53
ENDBRANCH   7  52
TORSDOF 27

ENDMDL
MODEL 25
REMARK VINA RESULT:       4.2      3.058      6.066
REMARK  27 active torsions:
REMARK  status: ('A' for Active; 'I' for Inactive)
REMARK    1  A    between atoms: C2_1  and  O2_78 
REMARK    2  A    between atoms: C1_3  and  O4_50 
REMARK    3  A    between atoms: O4_5  and  C4_58 
REMARK    4  A    between atoms: O4_5  and  C1_27 
REMARK    5  A    between atoms: C2_6  and  N_39 
REMARK    6  A    between atoms: S1_9  and  N_39 
REMARK    7  A    between atoms: C6_10  and  C5_52 
REMARK    8  A    between atoms: C2_12  and  N_73 
REMARK    9  A    between atoms: C2_19  and  O2_24 
REMARK   10  A    between atoms: C2_21  and  O2_44 
REMARK   11  A    between atoms: S2_23  and  O6_65 
REMARK   12  A    between atoms: O2_24  and  S_54 
REMARK   13  A    between atoms: C1_28  and  O4_60 
REMARK   14  A    between atoms: C5_29  and  C6_38 
REMARK   15  A    between atoms: C5_30  and  C6_33 
REMARK   16  A    between atoms: S1_34  and  N_73 
REMARK   17  A    between atoms: C5_41  and  C6_46 
REMARK   18  A    between atoms: S_43  and  O2_44 
REMARK   19  A    between atoms: C6_46  and  O6_72 
REMARK   20  A    between atoms: O4_50  and  C4_71 
REMARK   21  A    between atoms: C1_56  and  O4_64 
REMARK   22  A    between atoms: O4_60  and  C4_83 
REMARK   23  A    between atoms: C4_61  and  O4_64 
REMARK   24  A    between atoms: S2_63  and  O6_72 
REMARK   25  A    between atoms: O6_65  and  C6_67 
REMARK   26  A    between atoms: C6_67  and  C5_75 
REMARK   27  A    between atoms: S_76  and  O2_78 
ROOT
ATOM      1  C2  IDS d 504     -20.746  50.775 174.009  0.00  0.00     0.226 C 
ATOM      2  O3  IDS d 504     -21.216  50.856 176.415  0.00  0.00    -0.218 OA
ATOM      3  O5  IDS d 504     -19.867  48.508 174.158  0.00  0.00    -0.318 OA
ATOM      4  C5  IDS d 504     -19.544  48.640 175.524  0.00  0.00     0.234 C 
ATOM      5  C1  IDS d 504     -20.980  49.303 173.737  0.00  0.00     0.269 C 
ATOM      6  C3  IDS d 504     -20.180  51.037 175.458  0.00  0.00     0.216 C 
ATOM      7  C4  IDS d 504     -19.068  50.062 175.813  0.00  0.00     0.189 C 
ENDROOT
BRANCH   5   8
ATOM      8  O4  SGN d 503     -22.175  48.925 174.358  0.00  0.00    -0.326 OA
BRANCH   8   9
ATOM      9  C4  SGN d 503     -22.755  47.781 173.823  0.00  0.00     0.180 C 
ATOM     10  C3  SGN d 503     -22.412  47.714 172.336  0.00  0.00     0.210 C 
ATOM     11  C2  SGN d 503     -22.854  46.363 171.804  0.00  0.00     0.207 C 
ATOM     12  O3  SGN d 503     -23.118  48.747 171.675  0.00  0.00    -0.218 OA
ATOM     13  C1  SGN d 503     -22.279  45.210 172.639  0.00  0.00     0.263 C 
ATOM     14  O5  SGN d 503     -22.656  45.369 173.984  0.00  0.00    -0.327 OA
ATOM     15  C5  SGN d 503     -22.186  46.551 174.553  0.00  0.00     0.179 C 
BRANCH  11  16
ATOM     16  N   SGN d 503     -22.501  46.204 170.405  0.00  0.00    -0.162 NA
BRANCH  16  17
ATOM     17  S1  SGN d 503     -23.535  45.380 169.456  0.00  0.00     0.227 S 
ATOM     18  O1S SGN d 503     -23.035  44.019 169.399  0.00  0.00    -0.577 OA
ATOM     19  O2S SGN d 503     -24.864  45.452 170.059  0.00  0.00    -0.577 OA
ATOM     20  O3S SGN d 503     -23.432  46.060 168.184  0.00  0.00    -0.577 OA
ENDBRANCH  16  17
ENDBRANCH  11  16
BRANCH  13  21
ATOM     21  O4  IDS d 502     -20.886  45.139 172.502  0.00  0.00    -0.326 OA
BRANCH  21  22
ATOM     22  C4  IDS d 502     -20.397  43.886 172.096  0.00  0.00     0.189 C 
ATOM     23  C3  IDS d 502     -19.753  44.009 170.702  0.00  0.00     0.216 C 
ATOM     24  O3  IDS d 502     -19.449  42.715 170.221  0.00  0.00    -0.218 OA
ATOM     25  C2  IDS d 502     -18.450  44.810 170.769  0.00  0.00     0.229 C 
ATOM     26  C1  IDS d 502     -17.541  44.324 171.893  0.00  0.00     0.301 C 
ATOM     27  O1  IDS d 502     -16.996  43.090 171.505  0.00  0.00    -0.187 OA
ATOM     28  O5  IDS d 502     -18.233  44.248 173.114  0.00  0.00    -0.316 OA
ATOM     29  C5  IDS d 502     -19.361  43.395 173.104  0.00  0.00     0.234 C 
BRANCH  25  30
ATOM     30  O2  IDS d 502     -18.793  46.144 171.033  0.00  0.00    -0.232 OA
BRANCH  30  31
ATOM     31  S   IDS d 502     -18.264  47.429 170.314  0.00  0.00     0.252 S 
ATOM     32  O3S IDS d 502     -18.060  48.384 171.373  0.00  0.00    -0.572 OA
ATOM     33  O2S IDS d 502     -19.296  47.809 169.377  0.00  0.00    -0.572 OA
ATOM     34  O1S IDS d 502     -17.035  47.076 169.660  0.00  0.00    -0.572 OA
ENDBRANCH  30  31
ENDBRANCH  25  30
BRANCH  29  35
ATOM     35  C6  IDS d 502     -19.903  43.203 174.513  0.00  0.00     0.216 C 
ATOM     36  O61 IDS d 502     -19.331  43.662 175.472  0.00  0.00    -0.646 OA
ATOM     37  O62 IDS d 502     -20.930  42.584 174.710  0.00  0.00    -0.646 OA
ENDBRANCH  29  35
ENDBRANCH  21  22
ENDBRANCH  13  21
BRANCH  15  38
ATOM     38  C6  SGN d 503     -22.576  46.454 176.003  0.00  0.00     0.198 C 
BRANCH  38  39
ATOM     39  O6  SGN d 503     -21.621  45.639 176.647  0.00  0.00    -0.235 OA
BRANCH  39  40
ATOM     40  S2  SGN d 503     -21.884  44.748 177.889  0.00  0.00     0.252 S 
ATOM     41  O4S SGN d 503     -22.549  43.565 177.458  0.00  0.00    -0.572 OA
ATOM     42  O5S SGN d 503     -20.586  44.456 178.489  0.00  0.00    -0.572 OA
ATOM     43  O6S SGN d 503     -22.750  45.528 178.684  0.00  0.00    -0.572 OA
ENDBRANCH  39  40
ENDBRANCH  38  39
ENDBRANCH  15  38
ENDBRANCH   8   9
ENDBRANCH   5   8
BRANCH   1  44
ATOM     44  O2  IDS d 504     -19.845  51.275 173.024  0.00  0.00    -0.233 OA
BRANCH  44  45
ATOM     45  S   IDS d 504     -20.055  52.508 172.125  0.00  0.00     0.252 S 
ATOM     46  O3S IDS d 504     -20.697  51.980 170.980  0.00  0.00    -0.572 OA
ATOM     47  O2S IDS d 504     -18.769  53.091 171.881  0.00  0.00    -0.572 OA
ATOM     48  O1S IDS d 504     -20.900  53.389 172.847  0.00  0.00    -0.572 OA
ENDBRANCH  44  45
ENDBRANCH   1  44
BRANCH   4  49
ATOM     49  C6  IDS d 504     -18.576  47.527 175.958  0.00  0.00     0.216 C 
ATOM     50  O62 IDS d 504     -18.243  47.396 177.137  0.00  0.00    -0.646 OA
ATOM     51  O61 IDS d 504     -18.098  46.753 175.138  0.00  0.00    -0.646 OA
ENDBRANCH   4  49
BRANCH   7  52
ATOM     52  O4  IDS d 504     -17.917  50.360 175.036  0.00  0.00    -0.326 OA
BRANCH  52  53
ATOM     53  C1  SGN d 505     -16.834  50.839 175.787  0.00  0.00     0.263 C 
ATOM     54  C2  SGN d 505     -15.984  51.805 174.986  0.00  0.00     0.207 C 
ATOM     55  C3  SGN d 505     -15.286  51.079 173.819  0.00  0.00     0.210 C 
ATOM     56  C4  SGN d 505     -14.456  49.936 174.471  0.00  0.00     0.180 C 
ATOM     57  O3  SGN d 505     -14.430  52.004 173.160  0.00  0.00    -0.218 OA
ATOM     58  C5  SGN d 505     -15.427  49.064 175.199  0.00  0.00     0.179 C 
ATOM     59  O5  SGN d 505     -16.039  49.776 176.231  0.00  0.00    -0.327 OA
BRANCH  54  60
ATOM     60  N   SGN d 505     -16.804  52.978 174.603  0.00  0.00    -0.162 NA
BRANCH  60  61
ATOM     61  S1  SGN d 505     -16.416  54.453 175.297  0.00  0.00     0.227 S 
ATOM     62  O3S SGN d 505     -15.777  54.173 176.534  0.00  0.00    -0.577 OA
ATOM     63  O1S SGN d 505     -15.564  55.164 174.368  0.00  0.00    -0.577 OA
ATOM     64  O2S SGN d 505     -17.685  55.114 175.499  0.00  0.00    -0.577 OA
ENDBRANCH  60  61
ENDBRANCH  54  60
BRANCH  56  65
ATOM     65  O4  SGN d 505     -13.776  49.086 173.571  0.00  0.00    -0.326 OA
BRANCH  65  66
ATOM     66  C1  IDS d 506     -12.417  49.176 173.309  0.00  0.00     0.269 C 
ATOM     67  C2  IDS d 506     -12.041  48.113 172.267  0.00  0.00     0.226 C 
ATOM     68  C3  IDS d 506     -10.508  47.888 172.143  0.00  0.00     0.219 C 
ATOM     69  O3  IDS d 506      -9.974  48.881 171.271  0.00  0.00    -0.218 OA
ATOM     70  C4  IDS d 506      -9.759  47.963 173.491  0.00  0.00     0.223 C 
ATOM     71  O4  IDS d 506      -9.906  46.712 174.121  0.00  0.00    -0.217 OA
ATOM     72  C5  IDS d 506     -10.350  49.063 174.379  0.00  0.00     0.237 C 
ATOM     73  O5  IDS d 506     -11.724  48.894 174.498  0.00  0.00    -0.318 OA
BRANCH  67  74
ATOM     74  O2  IDS d 506     -12.611  46.866 172.615  0.00  0.00    -0.233 OA
BRANCH  74  75
ATOM     75  S   IDS d 506     -12.815  45.586 171.697  0.00  0.00     0.252 S 
ATOM     76  O1S IDS d 506     -12.681  46.065 170.356  0.00  0.00    -0.572 OA
ATOM     77  O2S IDS d 506     -11.781  44.641 172.013  0.00  0.00    -0.572 OA
ATOM     78  O3S IDS d 506     -14.144  45.101 171.998  0.00  0.00    -0.572 OA
ENDBRANCH  74  75
ENDBRANCH  67  74
BRANCH  72  79
ATOM     79  C6  IDS d 506      -9.740  49.221 175.760  0.00  0.00     0.217 C 
ATOM     80  O61 IDS d 506      -8.547  49.466 175.877  0.00  0.00    -0.646 OA
ATOM     81  O62 IDS d 506     -10.401  49.096 176.776  0.00  0.00    -0.646 OA
ENDBRANCH  72  79
ENDBRANCH  65  66
ENDBRANCH  56  65
BRANCH  58  82
ATOM     82  C6  SGN d 505     -14.778  47.879 175.836  0.00  0.00     0.198 C 
BRANCH  82  83
ATOM     83  O6  SGN d 505     -13.988  48.398 176.850  0.00  0.00    -0.235 OA
BRANCH  83  84
ATOM     84  S2  SGN d 505     -13.880  47.897 178.283  0.00  0.00     0.252 S 
ATOM     85  O6S SGN d 505     -13.108  48.887 179.021  0.00  0.00    -0.572 OA
ATOM     86  O4S SGN d 505     -15.248  47.800 178.742  0.00  0.00    -0.572 OA
ATOM     87  O5S SGN d 505     -13.196  46.633 178.174  0.00  0.00    -0.572 OA
ENDBRANCH  83  84
ENDBRANCH  82  83
ENDBRANCH  58  82
ENDBRANCH  52  53
ENDBRANCH   7  52
TORSDOF 27

ENDMDL
MODEL 26
REMARK VINA RESULT:       4.2      4.894     10.674
REMARK  27 active torsions:
REMARK  status: ('A' for Active; 'I' for Inactive)
REMARK    1  A    between atoms: C2_1  and  O2_78 
REMARK    2  A    between atoms: C1_3  and  O4_50 
REMARK    3  A    between atoms: O4_5  and  C4_58 
REMARK    4  A    between atoms: O4_5  and  C1_27 
REMARK    5  A    between atoms: C2_6  and  N_39 
REMARK    6  A    between atoms: S1_9  and  N_39 
REMARK    7  A    between atoms: C6_10  and  C5_52 
REMARK    8  A    between atoms: C2_12  and  N_73 
REMARK    9  A    between atoms: C2_19  and  O2_24 
REMARK   10  A    between atoms: C2_21  and  O2_44 
REMARK   11  A    between atoms: S2_23  and  O6_65 
REMARK   12  A    between atoms: O2_24  and  S_54 
REMARK   13  A    between atoms: C1_28  and  O4_60 
REMARK   14  A    between atoms: C5_29  and  C6_38 
REMARK   15  A    between atoms: C5_30  and  C6_33 
REMARK   16  A    between atoms: S1_34  and  N_73 
REMARK   17  A    between atoms: C5_41  and  C6_46 
REMARK   18  A    between atoms: S_43  and  O2_44 
REMARK   19  A    between atoms: C6_46  and  O6_72 
REMARK   20  A    between atoms: O4_50  and  C4_71 
REMARK   21  A    between atoms: C1_56  and  O4_64 
REMARK   22  A    between atoms: O4_60  and  C4_83 
REMARK   23  A    between atoms: C4_61  and  O4_64 
REMARK   24  A    between atoms: S2_63  and  O6_72 
REMARK   25  A    between atoms: O6_65  and  C6_67 
REMARK   26  A    between atoms: C6_67  and  C5_75 
REMARK   27  A    between atoms: S_76  and  O2_78 
ROOT
ATOM      1  C2  IDS d 504     -15.457  49.050 174.827  0.00  0.00     0.226 C 
ATOM      2  O3  IDS d 504     -14.735  49.202 172.488  0.00  0.00    -0.218 OA
ATOM      3  O5  IDS d 504     -17.707  48.369 174.190  0.00  0.00    -0.318 OA
ATOM      4  C5  IDS d 504     -17.609  48.961 172.915  0.00  0.00     0.234 C 
ATOM      5  C1  IDS d 504     -16.460  47.918 174.728  0.00  0.00     0.269 C 
ATOM      6  C3  IDS d 504     -15.403  49.924 173.515  0.00  0.00     0.216 C 
ATOM      7  C4  IDS d 504     -16.796  50.252 172.999  0.00  0.00     0.189 C 
ENDROOT
BRANCH   5   8
ATOM      8  O4  SGN d 503     -15.890  46.890 173.970  0.00  0.00    -0.326 OA
BRANCH   8   9
ATOM      9  C4  SGN d 503     -16.483  45.648 174.164  0.00  0.00     0.180 C 
ATOM     10  C3  SGN d 503     -17.124  45.628 175.550  0.00  0.00     0.210 C 
ATOM     11  C2  SGN d 503     -17.954  44.363 175.674  0.00  0.00     0.207 C 
ATOM     12  O3  SGN d 503     -16.088  45.620 176.514  0.00  0.00    -0.218 OA
ATOM     13  C1  SGN d 503     -18.950  44.224 174.514  0.00  0.00     0.263 C 
ATOM     14  O5  SGN d 503     -18.255  44.253 173.292  0.00  0.00    -0.327 OA
ATOM     15  C5  SGN d 503     -17.556  45.439 173.081  0.00  0.00     0.179 C 
BRANCH  11  16
ATOM     16  N   SGN d 503     -18.647  44.308 176.949  0.00  0.00    -0.162 NA
BRANCH  16  17
ATOM     17  S1  SGN d 503     -18.960  42.838 177.573  0.00  0.00     0.227 S 
ATOM     18  O1S SGN d 503     -18.835  42.975 179.012  0.00  0.00    -0.577 OA
ATOM     19  O2S SGN d 503     -20.312  42.451 177.174  0.00  0.00    -0.577 OA
ATOM     20  O3S SGN d 503     -17.922  42.009 177.004  0.00  0.00    -0.577 OA
ENDBRANCH  16  17
ENDBRANCH  11  16
BRANCH  13  21
ATOM     21  O4  IDS d 502     -19.929  45.226 174.571  0.00  0.00    -0.326 OA
BRANCH  21  22
ATOM     22  C4  IDS d 502     -21.250  44.755 174.633  0.00  0.00     0.189 C 
ATOM     23  C3  IDS d 502     -21.951  45.343 175.872  0.00  0.00     0.216 C 
ATOM     24  O3  IDS d 502     -23.204  44.709 176.035  0.00  0.00    -0.218 OA
ATOM     25  C2  IDS d 502     -22.197  46.845 175.702  0.00  0.00     0.229 C 
ATOM     26  C1  IDS d 502     -22.827  47.169 174.352  0.00  0.00     0.301 C 
ATOM     27  O1  IDS d 502     -24.166  46.753 174.390  0.00  0.00    -0.187 OA
ATOM     28  O5  IDS d 502     -22.108  46.580 173.297  0.00  0.00    -0.316 OA
ATOM     29  C5  IDS d 502     -21.998  45.172 173.368  0.00  0.00     0.234 C 
BRANCH  25  30
ATOM     30  O2  IDS d 502     -20.948  47.481 175.763  0.00  0.00    -0.232 OA
BRANCH  30  31
ATOM     31  S   IDS d 502     -20.389  48.386 176.910  0.00  0.00     0.252 S 
ATOM     32  O3S IDS d 502     -19.376  47.586 177.549  0.00  0.00    -0.572 OA
ATOM     33  O2S IDS d 502     -21.517  48.686 177.761  0.00  0.00    -0.572 OA
ATOM     34  O1S IDS d 502     -19.840  49.563 176.296  0.00  0.00    -0.572 OA
ENDBRANCH  30  31
ENDBRANCH  25  30
BRANCH  29  35
ATOM     35  C6  IDS d 502     -21.408  44.613 172.081  0.00  0.00     0.216 C 
ATOM     36  O61 IDS d 502     -21.488  43.439 171.814  0.00  0.00    -0.646 OA
ATOM     37  O62 IDS d 502     -20.844  45.337 171.284  0.00  0.00    -0.646 OA
ENDBRANCH  29  35
ENDBRANCH  21  22
ENDBRANCH  13  21
BRANCH  15  38
ATOM     38  C6  SGN d 503     -17.012  45.315 171.683  0.00  0.00     0.198 C 
BRANCH  38  39
ATOM     39  O6  SGN d 503     -15.812  44.577 171.757  0.00  0.00    -0.235 OA
BRANCH  39  40
ATOM     40  S2  SGN d 503     -15.616  43.120 171.259  0.00  0.00     0.252 S 
ATOM     41  O4S SGN d 503     -14.484  43.091 170.397  0.00  0.00    -0.572 OA
ATOM     42  O5S SGN d 503     -15.424  42.286 172.442  0.00  0.00    -0.572 OA
ATOM     43  O6S SGN d 503     -16.792  42.856 170.524  0.00  0.00    -0.572 OA
ENDBRANCH  39  40
ENDBRANCH  38  39
ENDBRANCH  15  38
ENDBRANCH   8   9
ENDBRANCH   5   8
BRANCH   1  44
ATOM     44  O2  IDS d 504     -15.802  49.857 175.951  0.00  0.00    -0.233 OA
BRANCH  44  45
ATOM     45  S   IDS d 504     -15.042  49.948 177.287  0.00  0.00     0.252 S 
ATOM     46  O3S IDS d 504     -13.781  50.473 176.918  0.00  0.00    -0.572 OA
ATOM     47  O2S IDS d 504     -15.004  48.632 177.854  0.00  0.00    -0.572 OA
ATOM     48  O1S IDS d 504     -15.773  50.847 178.102  0.00  0.00    -0.572 OA
ENDBRANCH  44  45
ENDBRANCH   1  44
BRANCH   4  49
ATOM     49  C6  IDS d 504     -19.003  49.109 172.281  0.00  0.00     0.216 C 
ATOM     50  O62 IDS d 504     -19.146  49.140 171.057  0.00  0.00    -0.646 OA
ATOM     51  O61 IDS d 504     -20.003  49.217 172.979  0.00  0.00    -0.646 OA
ENDBRANCH   4  49
BRANCH   7  52
ATOM     52  O4  IDS d 504     -17.422  51.167 173.886  0.00  0.00    -0.326 OA
BRANCH  52  53
ATOM     53  C1  SGN d 505     -17.233  52.512 173.538  0.00  0.00     0.263 C 
ATOM     54  C2  SGN d 505     -17.500  53.434 174.712  0.00  0.00     0.207 C 
ATOM     55  C3  SGN d 505     -18.989  53.397 175.108  0.00  0.00     0.210 C 
ATOM     56  C4  SGN d 505     -19.774  53.802 173.827  0.00  0.00     0.180 C 
ATOM     57  O3  SGN d 505     -19.203  54.345 176.145  0.00  0.00    -0.218 OA
ATOM     58  C5  SGN d 505     -19.428  52.796 172.778  0.00  0.00     0.179 C 
ATOM     59  O5  SGN d 505     -18.069  52.863 172.471  0.00  0.00    -0.327 OA
BRANCH  54  60
ATOM     60  N   SGN d 505     -16.546  53.125 175.803  0.00  0.00    -0.162 NA
BRANCH  60  61
ATOM     61  S1  SGN d 505     -15.399  54.288 176.179  0.00  0.00     0.227 S 
ATOM     62  O3S SGN d 505     -14.528  53.713 177.143  0.00  0.00    -0.577 OA
ATOM     63  O1S SGN d 505     -14.723  54.649 174.951  0.00  0.00    -0.577 OA
ATOM     64  O2S SGN d 505     -16.151  55.386 176.739  0.00  0.00    -0.577 OA
ENDBRANCH  60  61
ENDBRANCH  54  60
BRANCH  56  65
ATOM     65  O4  SGN d 505     -21.182  53.771 173.940  0.00  0.00    -0.326 OA
BRANCH  65  66
ATOM     66  C1  IDS d 506     -21.878  54.321 175.005  0.00  0.00     0.269 C 
ATOM     67  C2  IDS d 506     -23.359  53.937 174.883  0.00  0.00     0.226 C 
ATOM     68  C3  IDS d 506     -24.288  54.763 175.815  0.00  0.00     0.219 C 
ATOM     69  O3  IDS d 506     -24.277  54.167 177.109  0.00  0.00    -0.218 OA
ATOM     70  C4  IDS d 506     -23.872  56.243 175.953  0.00  0.00     0.223 C 
ATOM     71  O4  IDS d 506     -24.372  56.925 174.827  0.00  0.00    -0.217 OA
ATOM     72  C5  IDS d 506     -22.346  56.375 176.003  0.00  0.00     0.237 C 
ATOM     73  O5  IDS d 506     -21.775  55.720 174.919  0.00  0.00    -0.318 OA
BRANCH  67  74
ATOM     74  O2  IDS d 506     -23.810  54.153 173.560  0.00  0.00    -0.233 OA
BRANCH  74  75
ATOM     75  S   IDS d 506     -24.621  53.159 172.622  0.00  0.00     0.252 S 
ATOM     76  O1S IDS d 506     -25.026  52.087 173.479  0.00  0.00    -0.572 OA
ATOM     77  O2S IDS d 506     -25.760  53.863 172.104  0.00  0.00    -0.572 OA
ATOM     78  O3S IDS d 506     -23.688  52.747 171.596  0.00  0.00    -0.572 OA
ENDBRANCH  74  75
ENDBRANCH  67  74
BRANCH  72  79
ATOM     79  C6  IDS d 506     -21.789  57.784 176.090  0.00  0.00     0.217 C 
ATOM     80  O61 IDS d 506     -21.738  58.355 177.170  0.00  0.00    -0.646 OA
ATOM     81  O62 IDS d 506     -21.398  58.387 175.105  0.00  0.00    -0.646 OA
ENDBRANCH  72  79
ENDBRANCH  65  66
ENDBRANCH  56  65
BRANCH  58  82
ATOM     82  C6  SGN d 505     -20.158  53.023 171.494  0.00  0.00     0.198 C 
BRANCH  82  83
ATOM     83  O6  SGN d 505     -19.520  54.101 170.899  0.00  0.00    -0.235 OA
BRANCH  83  84
ATOM     84  S2  SGN d 505     -20.135  55.139 169.972  0.00  0.00     0.252 S 
ATOM     85  O6S SGN d 505     -19.044  55.969 169.481  0.00  0.00    -0.572 OA
ATOM     86  O4S SGN d 505     -20.765  54.368 168.924  0.00  0.00    -0.572 OA
ATOM     87  O5S SGN d 505     -21.053  55.872 170.808  0.00  0.00    -0.572 OA
ENDBRANCH  83  84
ENDBRANCH  82  83
ENDBRANCH  58  82
ENDBRANCH  52  53
ENDBRANCH   7  52
TORSDOF 27

ENDMDL
MODEL 27
REMARK VINA RESULT:       4.3      2.753     10.108
REMARK  27 active torsions:
REMARK  status: ('A' for Active; 'I' for Inactive)
REMARK    1  A    between atoms: C2_1  and  O2_78 
REMARK    2  A    between atoms: C1_3  and  O4_50 
REMARK    3  A    between atoms: O4_5  and  C4_58 
REMARK    4  A    between atoms: O4_5  and  C1_27 
REMARK    5  A    between atoms: C2_6  and  N_39 
REMARK    6  A    between atoms: S1_9  and  N_39 
REMARK    7  A    between atoms: C6_10  and  C5_52 
REMARK    8  A    between atoms: C2_12  and  N_73 
REMARK    9  A    between atoms: C2_19  and  O2_24 
REMARK   10  A    between atoms: C2_21  and  O2_44 
REMARK   11  A    between atoms: S2_23  and  O6_65 
REMARK   12  A    between atoms: O2_24  and  S_54 
REMARK   13  A    between atoms: C1_28  and  O4_60 
REMARK   14  A    between atoms: C5_29  and  C6_38 
REMARK   15  A    between atoms: C5_30  and  C6_33 
REMARK   16  A    between atoms: S1_34  and  N_73 
REMARK   17  A    between atoms: C5_41  and  C6_46 
REMARK   18  A    between atoms: S_43  and  O2_44 
REMARK   19  A    between atoms: C6_46  and  O6_72 
REMARK   20  A    between atoms: O4_50  and  C4_71 
REMARK   21  A    between atoms: C1_56  and  O4_64 
REMARK   22  A    between atoms: O4_60  and  C4_83 
REMARK   23  A    between atoms: C4_61  and  O4_64 
REMARK   24  A    between atoms: S2_63  and  O6_72 
REMARK   25  A    between atoms: O6_65  and  C6_67 
REMARK   26  A    between atoms: C6_67  and  C5_75 
REMARK   27  A    between atoms: S_76  and  O2_78 
ROOT
ATOM      1  C2  IDS d 504     -12.003  43.851 175.023  0.00  0.00     0.226 C 
ATOM      2  O3  IDS d 504     -11.234  44.067 177.342  0.00  0.00    -0.218 OA
ATOM      3  O5  IDS d 504     -11.147  46.054 174.432  0.00  0.00    -0.318 OA
ATOM      4  C5  IDS d 504     -11.200  46.517 175.762  0.00  0.00     0.234 C 
ATOM      5  C1  IDS d 504     -10.930  44.644 174.306  0.00  0.00     0.269 C 
ATOM      6  C3  IDS d 504     -12.302  44.410 176.468  0.00  0.00     0.216 C 
ATOM      7  C4  IDS d 504     -12.415  45.926 176.473  0.00  0.00     0.189 C 
ENDROOT
BRANCH   5   8
ATOM      8  O4  SGN d 503      -9.684  44.248 174.804  0.00  0.00    -0.326 OA
BRANCH   8   9
ATOM      9  C4  SGN d 503      -8.651  44.335 173.878  0.00  0.00     0.180 C 
ATOM     10  C3  SGN d 503      -9.201  43.967 172.502  0.00  0.00     0.210 C 
ATOM     11  C2  SGN d 503      -8.136  44.274 171.465  0.00  0.00     0.207 C 
ATOM     12  O3  SGN d 503      -9.491  42.582 172.500  0.00  0.00    -0.218 OA
ATOM     13  C1  SGN d 503      -7.634  45.720 171.579  0.00  0.00     0.263 C 
ATOM     14  O5  SGN d 503      -7.150  45.947 172.880  0.00  0.00    -0.327 OA
ATOM     15  C5  SGN d 503      -8.118  45.779 173.867  0.00  0.00     0.179 C 
BRANCH  11  16
ATOM     16  N   SGN d 503      -8.615  44.007 170.120  0.00  0.00    -0.162 NA
BRANCH  16  17
ATOM     17  S1  SGN d 503      -7.916  42.788 169.299  0.00  0.00     0.227 S 
ATOM     18  O1S SGN d 503      -7.266  43.393 168.152  0.00  0.00    -0.577 OA
ATOM     19  O2S SGN d 503      -6.960  42.129 170.187  0.00  0.00    -0.577 OA
ATOM     20  O3S SGN d 503      -9.037  41.955 168.924  0.00  0.00    -0.577 OA
ENDBRANCH  16  17
ENDBRANCH  11  16
BRANCH  13  21
ATOM     21  O4  IDS d 502      -8.645  46.630 171.242  0.00  0.00    -0.326 OA
BRANCH  21  22
ATOM     22  C4  IDS d 502      -8.403  47.371 170.074  0.00  0.00     0.189 C 
ATOM     23  C3  IDS d 502      -9.262  46.815 168.922  0.00  0.00     0.216 C 
ATOM     24  O3  IDS d 502      -8.865  47.433 167.713  0.00  0.00    -0.218 OA
ATOM     25  C2  IDS d 502     -10.746  47.122 169.147  0.00  0.00     0.229 C 
ATOM     26  C1  IDS d 502     -10.974  48.585 169.516  0.00  0.00     0.301 C 
ATOM     27  O1  IDS d 502     -10.785  49.356 168.360  0.00  0.00    -0.187 OA
ATOM     28  O5  IDS d 502     -10.137  48.981 170.574  0.00  0.00    -0.316 OA
ATOM     29  C5  IDS d 502      -8.754  48.837 170.321  0.00  0.00     0.234 C 
BRANCH  25  30
ATOM     30  O2  IDS d 502     -11.177  46.330 170.221  0.00  0.00    -0.232 OA
BRANCH  30  31
ATOM     31  S   IDS d 502     -12.630  45.834 170.521  0.00  0.00     0.252 S 
ATOM     32  O3S IDS d 502     -12.467  44.480 170.986  0.00  0.00    -0.572 OA
ATOM     33  O2S IDS d 502     -13.349  45.938 169.273  0.00  0.00    -0.572 OA
ATOM     34  O1S IDS d 502     -13.172  46.692 171.537  0.00  0.00    -0.572 OA
ENDBRANCH  30  31
ENDBRANCH  25  30
BRANCH  29  35
ATOM     35  C6  IDS d 502      -7.934  49.498 171.420  0.00  0.00     0.216 C 
ATOM     36  O61 IDS d 502      -6.778  49.204 171.603  0.00  0.00    -0.646 OA
ATOM     37  O62 IDS d 502      -8.422  50.346 172.141  0.00  0.00    -0.646 OA
ENDBRANCH  29  35
ENDBRANCH  21  22
ENDBRANCH  13  21
BRANCH  15  38
ATOM     38  C6  SGN d 503      -7.437  46.200 175.142  0.00  0.00     0.198 C 
BRANCH  38  39
ATOM     39  O6  SGN d 503      -6.182  45.556 175.186  0.00  0.00    -0.235 OA
BRANCH  39  40
ATOM     40  S2  SGN d 503      -5.444  45.105 176.474  0.00  0.00     0.252 S 
ATOM     41  O4S SGN d 503      -4.290  44.364 176.092  0.00  0.00    -0.572 OA
ATOM     42  O5S SGN d 503      -5.096  46.314 177.214  0.00  0.00    -0.572 OA
ATOM     43  O6S SGN d 503      -6.374  44.258 177.114  0.00  0.00    -0.572 OA
ENDBRANCH  39  40
ENDBRANCH  38  39
ENDBRANCH  15  38
ENDBRANCH   8   9
ENDBRANCH   5   8
BRANCH   1  44
ATOM     44  O2  IDS d 504     -13.186  43.874 174.226  0.00  0.00    -0.233 OA
BRANCH  44  45
ATOM     45  S   IDS d 504     -13.988  42.656 173.735  0.00  0.00     0.252 S 
ATOM     46  O3S IDS d 504     -13.023  41.868 173.064  0.00  0.00    -0.572 OA
ATOM     47  O2S IDS d 504     -15.052  43.142 172.906  0.00  0.00    -0.572 OA
ATOM     48  O1S IDS d 504     -14.484  42.010 174.895  0.00  0.00    -0.572 OA
ENDBRANCH  44  45
ENDBRANCH   1  44
BRANCH   4  49
ATOM     49  C6  IDS d 504     -11.101  48.051 175.801  0.00  0.00     0.216 C 
ATOM     50  O62 IDS d 504     -10.986  48.709 174.765  0.00  0.00    -0.646 OA
ATOM     51  O61 IDS d 504     -11.117  48.655 176.866  0.00  0.00    -0.646 OA
ENDBRANCH   4  49
BRANCH   7  52
ATOM     52  O4  IDS d 504     -13.608  46.311 175.805  0.00  0.00    -0.326 OA
BRANCH  52  53
ATOM     53  C1  SGN d 505     -14.668  46.618 176.668  0.00  0.00     0.263 C 
ATOM     54  C2  SGN d 505     -16.010  46.460 175.981  0.00  0.00     0.207 C 
ATOM     55  C3  SGN d 505     -16.177  47.505 174.861  0.00  0.00     0.210 C 
ATOM     56  C4  SGN d 505     -16.007  48.891 175.550  0.00  0.00     0.180 C 
ATOM     57  O3  SGN d 505     -17.483  47.377 174.315  0.00  0.00    -0.218 OA
ATOM     58  C5  SGN d 505     -14.641  48.902 176.155  0.00  0.00     0.179 C 
ATOM     59  O5  SGN d 505     -14.542  47.927 177.148  0.00  0.00    -0.327 OA
BRANCH  54  60
ATOM     60  N   SGN d 505     -16.182  45.049 175.562  0.00  0.00    -0.162 NA
BRANCH  60  61
ATOM     61  S1  SGN d 505     -17.135  44.066 176.528  0.00  0.00     0.227 S 
ATOM     62  O3S SGN d 505     -16.275  43.472 177.489  0.00  0.00    -0.577 OA
ATOM     63  O1S SGN d 505     -18.159  44.898 177.124  0.00  0.00    -0.577 OA
ATOM     64  O2S SGN d 505     -17.681  43.077 175.629  0.00  0.00    -0.577 OA
ENDBRANCH  60  61
ENDBRANCH  54  60
BRANCH  56  65
ATOM     65  O4  SGN d 505     -16.055  50.009 174.689  0.00  0.00    -0.326 OA
BRANCH  65  66
ATOM     66  C1  IDS d 506     -17.236  50.565 174.220  0.00  0.00     0.269 C 
ATOM     67  C2  IDS d 506     -16.910  51.869 173.477  0.00  0.00     0.226 C 
ATOM     68  C3  IDS d 506     -18.161  52.749 173.203  0.00  0.00     0.219 C 
ATOM     69  O3  IDS d 506     -18.796  52.276 172.018  0.00  0.00    -0.218 OA
ATOM     70  C4  IDS d 506     -19.192  52.738 174.351  0.00  0.00     0.223 C 
ATOM     71  O4  IDS d 506     -18.745  53.653 175.324  0.00  0.00    -0.217 OA
ATOM     72  C5  IDS d 506     -19.303  51.340 174.968  0.00  0.00     0.237 C 
ATOM     73  O5  IDS d 506     -18.043  50.876 175.327  0.00  0.00    -0.318 OA
BRANCH  67  74
ATOM     74  O2  IDS d 506     -16.017  52.655 174.243  0.00  0.00    -0.233 OA
BRANCH  74  75
ATOM     75  S   IDS d 506     -14.588  53.209 173.825  0.00  0.00     0.252 S 
ATOM     76  O1S IDS d 506     -14.218  54.110 174.872  0.00  0.00    -0.572 OA
ATOM     77  O2S IDS d 506     -13.681  52.098 173.756  0.00  0.00    -0.572 OA
ATOM     78  O3S IDS d 506     -14.784  53.865 172.551  0.00  0.00    -0.572 OA
ENDBRANCH  74  75
ENDBRANCH  67  74
BRANCH  72  79
ATOM     79  C6  IDS d 506     -20.249  51.190 176.144  0.00  0.00     0.217 C 
ATOM     80  O61 IDS d 506     -19.893  50.579 177.142  0.00  0.00    -0.646 OA
ATOM     81  O62 IDS d 506     -21.378  51.650 176.129  0.00  0.00    -0.646 OA
ENDBRANCH  72  79
ENDBRANCH  65  66
ENDBRANCH  56  65
BRANCH  58  82
ATOM     82  C6  SGN d 505     -14.308  50.202 176.811  0.00  0.00     0.198 C 
BRANCH  82  83
ATOM     83  O6  SGN d 505     -15.452  50.562 177.507  0.00  0.00    -0.235 OA
BRANCH  83  84
ATOM     84  S2  SGN d 505     -15.661  51.808 178.355  0.00  0.00     0.252 S 
ATOM     85  O6S SGN d 505     -14.824  52.854 177.783  0.00  0.00    -0.572 OA
ATOM     86  O4S SGN d 505     -17.073  52.098 178.239  0.00  0.00    -0.572 OA
ATOM     87  O5S SGN d 505     -15.237  51.422 179.677  0.00  0.00    -0.572 OA
ENDBRANCH  83  84
ENDBRANCH  82  83
ENDBRANCH  58  82
ENDBRANCH  52  53
ENDBRANCH   7  52
TORSDOF 27

ENDMDL
MODEL 28
REMARK VINA RESULT:       4.3      3.095     10.244
REMARK  27 active torsions:
REMARK  status: ('A' for Active; 'I' for Inactive)
REMARK    1  A    between atoms: C2_1  and  O2_78 
REMARK    2  A    between atoms: C1_3  and  O4_50 
REMARK    3  A    between atoms: O4_5  and  C4_58 
REMARK    4  A    between atoms: O4_5  and  C1_27 
REMARK    5  A    between atoms: C2_6  and  N_39 
REMARK    6  A    between atoms: S1_9  and  N_39 
REMARK    7  A    between atoms: C6_10  and  C5_52 
REMARK    8  A    between atoms: C2_12  and  N_73 
REMARK    9  A    between atoms: C2_19  and  O2_24 
REMARK   10  A    between atoms: C2_21  and  O2_44 
REMARK   11  A    between atoms: S2_23  and  O6_65 
REMARK   12  A    between atoms: O2_24  and  S_54 
REMARK   13  A    between atoms: C1_28  and  O4_60 
REMARK   14  A    between atoms: C5_29  and  C6_38 
REMARK   15  A    between atoms: C5_30  and  C6_33 
REMARK   16  A    between atoms: S1_34  and  N_73 
REMARK   17  A    between atoms: C5_41  and  C6_46 
REMARK   18  A    between atoms: S_43  and  O2_44 
REMARK   19  A    between atoms: C6_46  and  O6_72 
REMARK   20  A    between atoms: O4_50  and  C4_71 
REMARK   21  A    between atoms: C1_56  and  O4_64 
REMARK   22  A    between atoms: O4_60  and  C4_83 
REMARK   23  A    between atoms: C4_61  and  O4_64 
REMARK   24  A    between atoms: S2_63  and  O6_72 
REMARK   25  A    between atoms: O6_65  and  C6_67 
REMARK   26  A    between atoms: C6_67  and  C5_75 
REMARK   27  A    between atoms: S_76  and  O2_78 
ROOT
ATOM      1  C2  IDS d 504     -13.951  45.998 171.664  0.00  0.00     0.226 C 
ATOM      2  O3  IDS d 504     -13.926  43.854 172.854  0.00  0.00    -0.218 OA
ATOM      3  O5  IDS d 504     -14.660  47.207 173.657  0.00  0.00    -0.318 OA
ATOM      4  C5  IDS d 504     -15.232  46.060 174.243  0.00  0.00     0.234 C 
ATOM      5  C1  IDS d 504     -13.556  46.936 172.787  0.00  0.00     0.269 C 
ATOM      6  C3  IDS d 504     -14.786  44.762 172.177  0.00  0.00     0.216 C 
ATOM      7  C4  IDS d 504     -15.863  45.181 173.165  0.00  0.00     0.189 C 
ENDROOT
BRANCH   5   8
ATOM      8  O4  SGN d 503     -12.466  46.378 173.463  0.00  0.00    -0.326 OA
BRANCH   8   9
ATOM      9  C4  SGN d 503     -11.742  47.292 174.221  0.00  0.00     0.180 C 
ATOM     10  C3  SGN d 503     -11.966  48.687 173.643  0.00  0.00     0.210 C 
ATOM     11  C2  SGN d 503     -11.360  49.702 174.594  0.00  0.00     0.207 C 
ATOM     12  O3  SGN d 503     -11.315  48.753 172.388  0.00  0.00    -0.218 OA
ATOM     13  C1  SGN d 503     -11.883  49.518 176.026  0.00  0.00     0.263 C 
ATOM     14  O5  SGN d 503     -11.623  48.206 176.457  0.00  0.00    -0.327 OA
ATOM     15  C5  SGN d 503     -12.243  47.234 175.675  0.00  0.00     0.179 C 
BRANCH  11  16
ATOM     16  N   SGN d 503     -11.592  51.061 174.138  0.00  0.00    -0.162 NA
BRANCH  16  17
ATOM     17  S1  SGN d 503     -10.321  52.076 174.117  0.00  0.00     0.227 S 
ATOM     18  O1S SGN d 503     -10.843  53.370 173.721  0.00  0.00    -0.577 OA
ATOM     19  O2S SGN d 503      -9.739  52.106 175.458  0.00  0.00    -0.577 OA
ATOM     20  O3S SGN d 503      -9.453  51.500 173.115  0.00  0.00    -0.577 OA
ENDBRANCH  16  17
ENDBRANCH  11  16
BRANCH  13  21
ATOM     21  O4  IDS d 502     -13.249  49.822 176.103  0.00  0.00    -0.326 OA
BRANCH  21  22
ATOM     22  C4  IDS d 502     -13.597  50.712 177.132  0.00  0.00     0.189 C 
ATOM     23  C3  IDS d 502     -14.143  52.018 176.524  0.00  0.00     0.216 C 
ATOM     24  O3  IDS d 502     -14.299  52.974 177.554  0.00  0.00    -0.218 OA
ATOM     25  C2  IDS d 502     -15.511  51.791 175.875  0.00  0.00     0.229 C 
ATOM     26  C1  IDS d 502     -16.457  51.027 176.796  0.00  0.00     0.301 C 
ATOM     27  O1  IDS d 502     -16.865  51.899 177.817  0.00  0.00    -0.187 OA
ATOM     28  O5  IDS d 502     -15.854  49.858 177.292  0.00  0.00    -0.316 OA
ATOM     29  C5  IDS d 502     -14.661  50.070 178.020  0.00  0.00     0.234 C 
BRANCH  25  30
ATOM     30  O2  IDS d 502     -15.304  51.017 174.725  0.00  0.00    -0.232 OA
BRANCH  30  31
ATOM     31  S   IDS d 502     -15.776  51.324 173.265  0.00  0.00     0.252 S 
ATOM     32  O3S IDS d 502     -16.949  52.144 173.424  0.00  0.00    -0.572 OA
ATOM     33  O2S IDS d 502     -16.039  50.040 172.657  0.00  0.00    -0.572 OA
ATOM     34  O1S IDS d 502     -14.708  52.029 172.612  0.00  0.00    -0.572 OA
ENDBRANCH  30  31
ENDBRANCH  25  30
BRANCH  29  35
ATOM     35  C6  IDS d 502     -14.212  48.786 178.703  0.00  0.00     0.216 C 
ATOM     36  O61 IDS d 502     -13.114  48.689 179.195  0.00  0.00    -0.646 OA
ATOM     37  O62 IDS d 502     -14.952  47.824 178.775  0.00  0.00    -0.646 OA
ENDBRANCH  29  35
ENDBRANCH  21  22
ENDBRANCH  13  21
BRANCH  15  38
ATOM     38  C6  SGN d 503     -11.954  45.937 176.381  0.00  0.00     0.198 C 
BRANCH  38  39
ATOM     39  O6  SGN d 503     -12.942  45.009 175.988  0.00  0.00    -0.235 OA
BRANCH  39  40
ATOM     40  S2  SGN d 503     -13.452  43.817 176.840  0.00  0.00     0.252 S 
ATOM     41  O4S SGN d 503     -12.327  43.179 177.435  0.00  0.00    -0.572 OA
ATOM     42  O5S SGN d 503     -14.360  44.366 177.843  0.00  0.00    -0.572 OA
ATOM     43  O6S SGN d 503     -14.052  42.960 175.894  0.00  0.00    -0.572 OA
ENDBRANCH  39  40
ENDBRANCH  38  39
ENDBRANCH  15  38
ENDBRANCH   8   9
ENDBRANCH   5   8
BRANCH   1  44
ATOM     44  O2  IDS d 504     -14.698  46.740 170.702  0.00  0.00    -0.233 OA
BRANCH  44  45
ATOM     45  S   IDS d 504     -14.220  47.180 169.306  0.00  0.00     0.252 S 
ATOM     46  O3S IDS d 504     -13.165  48.081 169.583  0.00  0.00    -0.572 OA
ATOM     47  O2S IDS d 504     -15.343  47.756 168.625  0.00  0.00    -0.572 OA
ATOM     48  O1S IDS d 504     -13.760  46.009 168.654  0.00  0.00    -0.572 OA
ENDBRANCH  44  45
ENDBRANCH   1  44
BRANCH   4  49
ATOM     49  C6  IDS d 504     -16.171  46.456 175.395  0.00  0.00     0.216 C 
ATOM     50  O62 IDS d 504     -16.707  45.601 176.102  0.00  0.00    -0.646 OA
ATOM     51  O61 IDS d 504     -16.423  47.632 175.625  0.00  0.00    -0.646 OA
ENDBRANCH   4  49
BRANCH   7  52
ATOM     52  O4  IDS d 504     -16.876  45.901 172.479  0.00  0.00    -0.326 OA
BRANCH  52  53
ATOM     53  C1  SGN d 505     -18.158  45.350 172.620  0.00  0.00     0.263 C 
ATOM     54  C2  SGN d 505     -18.941  45.422 171.323  0.00  0.00     0.207 C 
ATOM     55  C3  SGN d 505     -19.246  46.885 170.949  0.00  0.00     0.210 C 
ATOM     56  C4  SGN d 505     -20.022  47.476 172.161  0.00  0.00     0.180 C 
ATOM     57  O3  SGN d 505     -20.059  46.893 169.784  0.00  0.00    -0.218 OA
ATOM     58  C5  SGN d 505     -19.120  47.356 173.347  0.00  0.00     0.179 C 
ATOM     59  O5  SGN d 505     -18.866  46.014 173.629  0.00  0.00    -0.327 OA
BRANCH  54  60
ATOM     60  N   SGN d 505     -18.238  44.634 170.284  0.00  0.00    -0.162 NA
BRANCH  60  61
ATOM     61  S1  SGN d 505     -18.406  42.968 170.330  0.00  0.00     0.227 S 
ATOM     62  O3S SGN d 505     -18.404  42.514 168.985  0.00  0.00    -0.577 OA
ATOM     63  O1S SGN d 505     -17.305  42.438 171.107  0.00  0.00    -0.577 OA
ATOM     64  O2S SGN d 505     -19.686  42.740 170.960  0.00  0.00    -0.577 OA
ENDBRANCH  60  61
ENDBRANCH  54  60
BRANCH  56  65
ATOM     65  O4  SGN d 505     -20.350  48.847 172.065  0.00  0.00    -0.326 OA
BRANCH  65  66
ATOM     66  C1  IDS d 506     -21.107  49.383 171.035  0.00  0.00     0.269 C 
ATOM     67  C2  IDS d 506     -21.212  50.902 171.234  0.00  0.00     0.226 C 
ATOM     68  C3  IDS d 506     -22.302  51.566 170.348  0.00  0.00     0.219 C 
ATOM     69  O3  IDS d 506     -21.750  51.809 169.057  0.00  0.00    -0.218 OA
ATOM     70  C4  IDS d 506     -23.575  50.708 170.184  0.00  0.00     0.223 C 
ATOM     71  O4  IDS d 506     -24.366  50.910 171.332  0.00  0.00    -0.217 OA
ATOM     72  C5  IDS d 506     -23.217  49.224 170.056  0.00  0.00     0.237 C 
ATOM     73  O5  IDS d 506     -22.400  48.837 171.112  0.00  0.00    -0.318 OA
BRANCH  67  74
ATOM     74  O2  IDS d 506     -21.542  51.195 172.578  0.00  0.00    -0.233 OA
BRANCH  74  75
ATOM     75  S   IDS d 506     -20.882  52.273 173.541  0.00  0.00     0.252 S 
ATOM     76  O1S IDS d 506     -20.085  51.515 174.456  0.00  0.00    -0.572 OA
ATOM     77  O2S IDS d 506     -20.064  53.143 172.744  0.00  0.00    -0.572 OA
ATOM     78  O3S IDS d 506     -21.989  52.953 174.177  0.00  0.00    -0.572 OA
ENDBRANCH  74  75
ENDBRANCH  67  74
BRANCH  72  79
ATOM     79  C6  IDS d 506     -24.377  48.253 169.936  0.00  0.00     0.217 C 
ATOM     80  O61 IDS d 506     -24.565  47.414 170.806  0.00  0.00    -0.646 OA
ATOM     81  O62 IDS d 506     -25.135  48.268 168.982  0.00  0.00    -0.646 OA
ENDBRANCH  72  79
ENDBRANCH  65  66
ENDBRANCH  56  65
BRANCH  58  82
ATOM     82  C6  SGN d 505     -19.713  47.940 174.588  0.00  0.00     0.198 C 
BRANCH  82  83
ATOM     83  O6  SGN d 505     -19.900  46.863 175.442  0.00  0.00    -0.235 OA
BRANCH  83  84
ATOM     84  S2  SGN d 505     -20.180  46.911 176.937  0.00  0.00     0.252 S 
ATOM     85  O6S SGN d 505     -20.210  45.533 177.407  0.00  0.00    -0.572 OA
ATOM     86  O4S SGN d 505     -19.080  47.666 177.493  0.00  0.00    -0.572 OA
ATOM     87  O5S SGN d 505     -21.464  47.558 177.044  0.00  0.00    -0.572 OA
ENDBRANCH  83  84
ENDBRANCH  82  83
ENDBRANCH  58  82
ENDBRANCH  52  53
ENDBRANCH   7  52
TORSDOF 27

ENDMDL
MODEL 29
REMARK VINA RESULT:       4.3      1.494      1.834
REMARK  27 active torsions:
REMARK  status: ('A' for Active; 'I' for Inactive)
REMARK    1  A    between atoms: C2_1  and  O2_78 
REMARK    2  A    between atoms: C1_3  and  O4_50 
REMARK    3  A    between atoms: O4_5  and  C4_58 
REMARK    4  A    between atoms: O4_5  and  C1_27 
REMARK    5  A    between atoms: C2_6  and  N_39 
REMARK    6  A    between atoms: S1_9  and  N_39 
REMARK    7  A    between atoms: C6_10  and  C5_52 
REMARK    8  A    between atoms: C2_12  and  N_73 
REMARK    9  A    between atoms: C2_19  and  O2_24 
REMARK   10  A    between atoms: C2_21  and  O2_44 
REMARK   11  A    between atoms: S2_23  and  O6_65 
REMARK   12  A    between atoms: O2_24  and  S_54 
REMARK   13  A    between atoms: C1_28  and  O4_60 
REMARK   14  A    between atoms: C5_29  and  C6_38 
REMARK   15  A    between atoms: C5_30  and  C6_33 
REMARK   16  A    between atoms: S1_34  and  N_73 
REMARK   17  A    between atoms: C5_41  and  C6_46 
REMARK   18  A    between atoms: S_43  and  O2_44 
REMARK   19  A    between atoms: C6_46  and  O6_72 
REMARK   20  A    between atoms: O4_50  and  C4_71 
REMARK   21  A    between atoms: C1_56  and  O4_64 
REMARK   22  A    between atoms: O4_60  and  C4_83 
REMARK   23  A    between atoms: C4_61  and  O4_64 
REMARK   24  A    between atoms: S2_63  and  O6_72 
REMARK   25  A    between atoms: O6_65  and  C6_67 
REMARK   26  A    between atoms: C6_67  and  C5_75 
REMARK   27  A    between atoms: S_76  and  O2_78 
ROOT
ATOM      1  C2  IDS d 504     -14.316  49.404 177.278  0.00  0.00     0.226 C 
ATOM      2  O3  IDS d 504     -13.778  47.643 178.898  0.00  0.00    -0.218 OA
ATOM      3  O5  IDS d 504     -14.822  47.779 175.535  0.00  0.00    -0.318 OA
ATOM      4  C5  IDS d 504     -14.021  46.781 176.124  0.00  0.00     0.234 C 
ATOM      5  C1  IDS d 504     -15.389  48.707 176.466  0.00  0.00     0.269 C 
ATOM      6  C3  IDS d 504     -13.229  48.401 177.828  0.00  0.00     0.216 C 
ATOM      7  C4  IDS d 504     -12.784  47.412 176.762  0.00  0.00     0.189 C 
ENDROOT
BRANCH   5   8
ATOM      8  O4  SGN d 503     -16.284  48.097 177.352  0.00  0.00    -0.326 OA
BRANCH   8   9
ATOM      9  C4  SGN d 503     -17.525  47.812 176.795  0.00  0.00     0.180 C 
ATOM     10  C3  SGN d 503     -17.941  48.986 175.911  0.00  0.00     0.210 C 
ATOM     11  C2  SGN d 503     -19.182  48.584 175.136  0.00  0.00     0.207 C 
ATOM     12  O3  SGN d 503     -18.233  50.087 176.750  0.00  0.00    -0.218 OA
ATOM     13  C1  SGN d 503     -18.974  47.264 174.379  0.00  0.00     0.263 C 
ATOM     14  O5  SGN d 503     -18.598  46.257 175.286  0.00  0.00    -0.327 OA
ATOM     15  C5  SGN d 503     -17.406  46.530 175.953  0.00  0.00     0.179 C 
BRANCH  11  16
ATOM     16  N   SGN d 503     -19.599  49.633 174.223  0.00  0.00    -0.162 NA
BRANCH  16  17
ATOM     17  S1  SGN d 503     -21.176  50.035 174.206  0.00  0.00     0.227 S 
ATOM     18  O1S SGN d 503     -21.243  51.390 173.692  0.00  0.00    -0.577 OA
ATOM     19  O2S SGN d 503     -21.880  49.086 173.344  0.00  0.00    -0.577 OA
ATOM     20  O3S SGN d 503     -21.554  49.951 175.599  0.00  0.00    -0.577 OA
ENDBRANCH  16  17
ENDBRANCH  11  16
BRANCH  13  21
ATOM     21  O4  IDS d 502     -18.025  47.415 173.359  0.00  0.00    -0.326 OA
BRANCH  21  22
ATOM     22  C4  IDS d 502     -18.460  47.010 172.086  0.00  0.00     0.189 C 
ATOM     23  C3  IDS d 502     -18.250  48.156 171.079  0.00  0.00     0.216 C 
ATOM     24  O3  IDS d 502     -18.872  47.812 169.856  0.00  0.00    -0.218 OA
ATOM     25  C2  IDS d 502     -16.760  48.381 170.807  0.00  0.00     0.229 C 
ATOM     26  C1  IDS d 502     -16.033  47.074 170.506  0.00  0.00     0.301 C 
ATOM     27  O1  IDS d 502     -16.407  46.658 169.220  0.00  0.00    -0.187 OA
ATOM     28  O5  IDS d 502     -16.299  46.104 171.488  0.00  0.00    -0.316 OA
ATOM     29  C5  IDS d 502     -17.666  45.781 171.647  0.00  0.00     0.234 C 
BRANCH  25  30
ATOM     30  O2  IDS d 502     -16.203  48.931 171.971  0.00  0.00    -0.232 OA
BRANCH  30  31
ATOM     31  S   IDS d 502     -15.089  50.025 172.075  0.00  0.00     0.252 S 
ATOM     32  O3S IDS d 502     -15.000  50.586 170.752  0.00  0.00    -0.572 OA
ATOM     33  O2S IDS d 502     -13.893  49.331 172.495  0.00  0.00    -0.572 OA
ATOM     34  O1S IDS d 502     -15.529  50.990 173.043  0.00  0.00    -0.572 OA
ENDBRANCH  30  31
ENDBRANCH  25  30
BRANCH  29  35
ATOM     35  C6  IDS d 502     -17.832  44.572 172.557  0.00  0.00     0.216 C 
ATOM     36  O61 IDS d 502     -16.893  44.105 173.155  0.00  0.00    -0.646 OA
ATOM     37  O62 IDS d 502     -18.918  44.047 172.709  0.00  0.00    -0.646 OA
ENDBRANCH  29  35
ENDBRANCH  21  22
ENDBRANCH  13  21
BRANCH  15  38
ATOM     38  C6  SGN d 503     -17.124  45.286 176.750  0.00  0.00     0.198 C 
BRANCH  38  39
ATOM     39  O6  SGN d 503     -18.093  44.324 176.394  0.00  0.00    -0.235 OA
BRANCH  39  40
ATOM     40  S2  SGN d 503     -18.531  43.118 177.267  0.00  0.00     0.252 S 
ATOM     41  O4S SGN d 503     -19.227  42.195 176.436  0.00  0.00    -0.572 OA
ATOM     42  O5S SGN d 503     -17.318  42.536 177.832  0.00  0.00    -0.572 OA
ATOM     43  O6S SGN d 503     -19.416  43.688 178.206  0.00  0.00    -0.572 OA
ENDBRANCH  39  40
ENDBRANCH  38  39
ENDBRANCH  15  38
ENDBRANCH   8   9
ENDBRANCH   5   8
BRANCH   1  44
ATOM     44  O2  IDS d 504     -13.706  50.397 176.456  0.00  0.00    -0.233 OA
BRANCH  44  45
ATOM     45  S   IDS d 504     -13.937  51.918 176.527  0.00  0.00     0.252 S 
ATOM     46  O3S IDS d 504     -13.641  52.238 177.873  0.00  0.00    -0.572 OA
ATOM     47  O2S IDS d 504     -15.292  52.170 176.131  0.00  0.00    -0.572 OA
ATOM     48  O1S IDS d 504     -13.013  52.505 175.627  0.00  0.00    -0.572 OA
ENDBRANCH  44  45
ENDBRANCH   1  44
BRANCH   4  49
ATOM     49  C6  IDS d 504     -13.733  45.657 175.115  0.00  0.00     0.216 C 
ATOM     50  O62 IDS d 504     -13.419  44.527 175.493  0.00  0.00    -0.646 OA
ATOM     51  O61 IDS d 504     -13.792  45.863 173.909  0.00  0.00    -0.646 OA
ENDBRANCH   4  49
BRANCH   7  52
ATOM     52  O4  IDS d 504     -12.021  48.094 175.777  0.00  0.00    -0.326 OA
BRANCH  52  53
ATOM     53  C1  SGN d 505     -10.636  47.941 175.928  0.00  0.00     0.263 C 
ATOM     54  C2  SGN d 505      -9.869  48.864 175.000  0.00  0.00     0.207 C 
ATOM     55  C3  SGN d 505     -10.091  48.466 173.528  0.00  0.00     0.210 C 
ATOM     56  C4  SGN d 505      -9.636  46.981 173.421  0.00  0.00     0.180 C 
ATOM     57  O3  SGN d 505      -9.279  49.297 172.709  0.00  0.00    -0.218 OA
ATOM     58  C5  SGN d 505     -10.490  46.203 174.368  0.00  0.00     0.179 C 
ATOM     59  O5  SGN d 505     -10.261  46.616 175.680  0.00  0.00    -0.327 OA
BRANCH  54  60
ATOM     60  N   SGN d 505     -10.193  50.271 175.332  0.00  0.00    -0.162 NA
BRANCH  60  61
ATOM     61  S1  SGN d 505      -8.912  51.310 175.630  0.00  0.00     0.227 S 
ATOM     62  O3S SGN d 505      -8.643  51.994 174.415  0.00  0.00    -0.577 OA
ATOM     63  O1S SGN d 505      -9.310  52.198 176.702  0.00  0.00    -0.577 OA
ATOM     64  O2S SGN d 505      -7.815  50.450 176.004  0.00  0.00    -0.577 OA
ENDBRANCH  60  61
ENDBRANCH  54  60
BRANCH  56  65
ATOM     65  O4  SGN d 505      -9.816  46.379 172.156  0.00  0.00    -0.326 OA
BRANCH  65  66
ATOM     66  C1  IDS d 506      -8.894  46.471 171.125  0.00  0.00     0.269 C 
ATOM     67  C2  IDS d 506      -9.311  45.514 169.999  0.00  0.00     0.226 C 
ATOM     68  C3  IDS d 506      -8.191  45.276 168.948  0.00  0.00     0.219 C 
ATOM     69  O3  IDS d 506      -8.222  46.344 168.004  0.00  0.00    -0.218 OA
ATOM     70  C4  IDS d 506      -6.775  45.199 169.556  0.00  0.00     0.223 C 
ATOM     71  O4  IDS d 506      -6.604  43.893 170.054  0.00  0.00    -0.217 OA
ATOM     72  C5  IDS d 506      -6.617  46.212 170.695  0.00  0.00     0.237 C 
ATOM     73  O5  IDS d 506      -7.644  46.056 171.617  0.00  0.00    -0.318 OA
BRANCH  67  74
ATOM     74  O2  IDS d 506      -9.646  44.249 170.534  0.00  0.00    -0.233 OA
BRANCH  74  75
ATOM     75  S   IDS d 506     -11.005  43.442 170.376  0.00  0.00     0.252 S 
ATOM     76  O1S IDS d 506     -12.003  44.439 170.137  0.00  0.00    -0.572 OA
ATOM     77  O2S IDS d 506     -10.875  42.562 169.250  0.00  0.00    -0.572 OA
ATOM     78  O3S IDS d 506     -11.188  42.742 171.630  0.00  0.00    -0.572 OA
ENDBRANCH  74  75
ENDBRANCH  67  74
BRANCH  72  79
ATOM     79  C6  IDS d 506      -5.285  46.216 171.420  0.00  0.00     0.217 C 
ATOM     80  O61 IDS d 506      -4.382  46.948 171.038  0.00  0.00    -0.646 OA
ATOM     81  O62 IDS d 506      -5.068  45.494 172.378  0.00  0.00    -0.646 OA
ENDBRANCH  72  79
ENDBRANCH  65  66
ENDBRANCH  56  65
BRANCH  58  82
ATOM     82  C6  SGN d 505     -10.206  44.737 174.334  0.00  0.00     0.198 C 
BRANCH  82  83
ATOM     83  O6  SGN d 505      -9.156  44.550 175.221  0.00  0.00    -0.235 OA
BRANCH  83  84
ATOM     84  S2  SGN d 505      -7.782  43.974 174.913  0.00  0.00     0.252 S 
ATOM     85  O6S SGN d 505      -7.813  43.519 173.530  0.00  0.00    -0.572 OA
ATOM     86  O4S SGN d 505      -6.868  45.076 175.117  0.00  0.00    -0.572 OA
ATOM     87  O5S SGN d 505      -7.626  42.888 175.848  0.00  0.00    -0.572 OA
ENDBRANCH  83  84
ENDBRANCH  82  83
ENDBRANCH  58  82
ENDBRANCH  52  53
ENDBRANCH   7  52
TORSDOF 27

ENDMDL
MODEL 30
REMARK VINA RESULT:       4.4      2.784     10.418
REMARK  27 active torsions:
REMARK  status: ('A' for Active; 'I' for Inactive)
REMARK    1  A    between atoms: C2_1  and  O2_78 
REMARK    2  A    between atoms: C1_3  and  O4_50 
REMARK    3  A    between atoms: O4_5  and  C4_58 
REMARK    4  A    between atoms: O4_5  and  C1_27 
REMARK    5  A    between atoms: C2_6  and  N_39 
REMARK    6  A    between atoms: S1_9  and  N_39 
REMARK    7  A    between atoms: C6_10  and  C5_52 
REMARK    8  A    between atoms: C2_12  and  N_73 
REMARK    9  A    between atoms: C2_19  and  O2_24 
REMARK   10  A    between atoms: C2_21  and  O2_44 
REMARK   11  A    between atoms: S2_23  and  O6_65 
REMARK   12  A    between atoms: O2_24  and  S_54 
REMARK   13  A    between atoms: C1_28  and  O4_60 
REMARK   14  A    between atoms: C5_29  and  C6_38 
REMARK   15  A    between atoms: C5_30  and  C6_33 
REMARK   16  A    between atoms: S1_34  and  N_73 
REMARK   17  A    between atoms: C5_41  and  C6_46 
REMARK   18  A    between atoms: S_43  and  O2_44 
REMARK   19  A    between atoms: C6_46  and  O6_72 
REMARK   20  A    between atoms: O4_50  and  C4_71 
REMARK   21  A    between atoms: C1_56  and  O4_64 
REMARK   22  A    between atoms: O4_60  and  C4_83 
REMARK   23  A    between atoms: C4_61  and  O4_64 
REMARK   24  A    between atoms: S2_63  and  O6_72 
REMARK   25  A    between atoms: O6_65  and  C6_67 
REMARK   26  A    between atoms: C6_67  and  C5_75 
REMARK   27  A    between atoms: S_76  and  O2_78 
ROOT
ATOM      1  C2  IDS d 504     -12.238  43.718 172.790  0.00  0.00     0.226 C 
ATOM      2  O3  IDS d 504     -12.672  42.298 174.741  0.00  0.00    -0.218 OA
ATOM      3  O5  IDS d 504     -11.407  45.540 174.179  0.00  0.00    -0.318 OA
ATOM      4  C5  IDS d 504     -12.121  45.103 175.313  0.00  0.00     0.234 C 
ATOM      5  C1  IDS d 504     -11.030  44.491 173.281  0.00  0.00     0.269 C 
ATOM      6  C3  IDS d 504     -13.230  43.346 173.958  0.00  0.00     0.216 C 
ATOM      7  C4  IDS d 504     -13.469  44.523 174.891  0.00  0.00     0.189 C 
ENDROOT
BRANCH   5   8
ATOM      8  O4  SGN d 503     -10.135  43.586 173.860  0.00  0.00    -0.326 OA
BRANCH   8   9
ATOM      9  C4  SGN d 503      -8.804  43.816 173.530  0.00  0.00     0.180 C 
ATOM     10  C3  SGN d 503      -8.734  44.234 172.063  0.00  0.00     0.210 C 
ATOM     11  C2  SGN d 503      -7.319  44.695 171.765  0.00  0.00     0.207 C 
ATOM     12  O3  SGN d 503      -9.051  43.107 171.268  0.00  0.00    -0.218 OA
ATOM     13  C1  SGN d 503      -6.855  45.774 172.753  0.00  0.00     0.263 C 
ATOM     14  O5  SGN d 503      -6.958  45.284 174.067  0.00  0.00    -0.327 OA
ATOM     15  C5  SGN d 503      -8.259  44.940 174.428  0.00  0.00     0.179 C 
BRANCH  11  16
ATOM     16  N   SGN d 503      -7.194  45.170 170.398  0.00  0.00    -0.162 NA
BRANCH  16  17
ATOM     17  S1  SGN d 503      -5.855  44.749 169.574  0.00  0.00     0.227 S 
ATOM     18  O1S SGN d 503      -5.147  43.799 170.410  0.00  0.00    -0.577 OA
ATOM     19  O2S SGN d 503      -6.269  44.158 168.302  0.00  0.00    -0.577 OA
ATOM     20  O3S SGN d 503      -5.145  46.001 169.434  0.00  0.00    -0.577 OA
ENDBRANCH  16  17
ENDBRANCH  11  16
BRANCH  13  21
ATOM     21  O4  IDS d 502      -7.591  46.955 172.588  0.00  0.00    -0.326 OA
BRANCH  21  22
ATOM     22  C4  IDS d 502      -6.817  48.103 172.349  0.00  0.00     0.189 C 
ATOM     23  C3  IDS d 502      -7.148  48.669 170.956  0.00  0.00     0.216 C 
ATOM     24  O3  IDS d 502      -6.226  49.696 170.647  0.00  0.00    -0.218 OA
ATOM     25  C2  IDS d 502      -8.556  49.271 170.929  0.00  0.00     0.229 C 
ATOM     26  C1  IDS d 502      -8.799  50.202 172.113  0.00  0.00     0.301 C 
ATOM     27  O1  IDS d 502      -8.075  51.382 171.890  0.00  0.00    -0.187 OA
ATOM     28  O5  IDS d 502      -8.461  49.582 173.328  0.00  0.00    -0.316 OA
ATOM     29  C5  IDS d 502      -7.117  49.150 173.420  0.00  0.00     0.234 C 
BRANCH  25  30
ATOM     30  O2  IDS d 502      -9.465  48.207 171.018  0.00  0.00    -0.232 OA
BRANCH  30  31
ATOM     31  S   IDS d 502     -10.847  48.066 170.298  0.00  0.00     0.252 S 
ATOM     32  O3S IDS d 502     -10.804  46.770 169.672  0.00  0.00    -0.572 OA
ATOM     33  O2S IDS d 502     -10.917  49.163 169.360  0.00  0.00    -0.572 OA
ATOM     34  O1S IDS d 502     -11.864  48.145 171.308  0.00  0.00    -0.572 OA
ENDBRANCH  30  31
ENDBRANCH  25  30
BRANCH  29  35
ATOM     35  C6  IDS d 502      -6.791  48.704 174.838  0.00  0.00     0.216 C 
ATOM     36  O61 IDS d 502      -5.649  48.622 175.222  0.00  0.00    -0.646 OA
ATOM     37  O62 IDS d 502      -7.673  48.424 175.625  0.00  0.00    -0.646 OA
ENDBRANCH  29  35
ENDBRANCH  21  22
ENDBRANCH  13  21
BRANCH  15  38
ATOM     38  C6  SGN d 503      -8.166  44.581 175.886  0.00  0.00     0.198 C 
BRANCH  38  39
ATOM     39  O6  SGN d 503      -7.500  43.340 175.977  0.00  0.00    -0.235 OA
BRANCH  39  40
ATOM     40  S2  SGN d 503      -6.448  42.956 177.050  0.00  0.00     0.252 S 
ATOM     41  O4S SGN d 503      -7.020  41.973 177.906  0.00  0.00    -0.572 OA
ATOM     42  O5S SGN d 503      -5.278  42.447 176.339  0.00  0.00    -0.572 OA
ATOM     43  O6S SGN d 503      -6.240  44.156 177.761  0.00  0.00    -0.572 OA
ENDBRANCH  39  40
ENDBRANCH  38  39
ENDBRANCH  15  38
ENDBRANCH   8   9
ENDBRANCH   5   8
BRANCH   1  44
ATOM     44  O2  IDS d 504     -12.902  44.505 171.803  0.00  0.00    -0.233 OA
BRANCH  44  45
ATOM     45  S   IDS d 504     -13.197  44.098 170.348  0.00  0.00     0.252 S 
ATOM     46  O3S IDS d 504     -13.623  45.305 169.744  0.00  0.00    -0.572 OA
ATOM     47  O2S IDS d 504     -14.185  43.059 170.380  0.00  0.00    -0.572 OA
ATOM     48  O1S IDS d 504     -11.972  43.638 169.805  0.00  0.00    -0.572 OA
ENDBRANCH  44  45
ENDBRANCH   1  44
BRANCH   4  49
ATOM     49  C6  IDS d 504     -12.193  46.221 176.366  0.00  0.00     0.216 C 
ATOM     50  O62 IDS d 504     -11.801  47.362 176.112  0.00  0.00    -0.646 OA
ATOM     51  O61 IDS d 504     -12.625  46.001 177.490  0.00  0.00    -0.646 OA
ENDBRANCH   4  49
BRANCH   7  52
ATOM     52  O4  IDS d 504     -14.236  45.509 174.215  0.00  0.00    -0.326 OA
BRANCH  52  53
ATOM     53  C1  SGN d 505     -15.609  45.449 174.493  0.00  0.00     0.263 C 
ATOM     54  C2  SGN d 505     -16.436  45.973 173.335  0.00  0.00     0.207 C 
ATOM     55  C3  SGN d 505     -16.201  47.483 173.136  0.00  0.00     0.210 C 
ATOM     56  C4  SGN d 505     -16.568  48.148 174.494  0.00  0.00     0.180 C 
ATOM     57  O3  SGN d 505     -17.067  47.941 172.106  0.00  0.00    -0.218 OA
ATOM     58  C5  SGN d 505     -15.662  47.551 175.521  0.00  0.00     0.179 C 
ATOM     59  O5  SGN d 505     -15.906  46.183 175.647  0.00  0.00    -0.327 OA
BRANCH  54  60
ATOM     60  N   SGN d 505     -16.194  45.130 172.141  0.00  0.00    -0.162 NA
BRANCH  60  61
ATOM     61  S1  SGN d 505     -17.435  44.121 171.642  0.00  0.00     0.227 S 
ATOM     62  O3S SGN d 505     -17.096  42.808 172.064  0.00  0.00    -0.577 OA
ATOM     63  O1S SGN d 505     -18.662  44.608 172.238  0.00  0.00    -0.577 OA
ATOM     64  O2S SGN d 505     -17.442  44.225 170.201  0.00  0.00    -0.577 OA
ENDBRANCH  60  61
ENDBRANCH  54  60
BRANCH  56  65
ATOM     65  O4  SGN d 505     -16.361  49.544 174.564  0.00  0.00    -0.326 OA
BRANCH  65  66
ATOM     66  C1  IDS d 506     -17.383  50.476 174.466  0.00  0.00     0.269 C 
ATOM     67  C2  IDS d 506     -16.804  51.876 174.711  0.00  0.00     0.226 C 
ATOM     68  C3  IDS d 506     -17.892  52.957 174.961  0.00  0.00     0.219 C 
ATOM     69  O3  IDS d 506     -18.372  53.416 173.700  0.00  0.00    -0.218 OA
ATOM     70  C4  IDS d 506     -19.092  52.450 175.788  0.00  0.00     0.223 C 
ATOM     71  O4  IDS d 506     -18.714  52.497 177.144  0.00  0.00    -0.217 OA
ATOM     72  C5  IDS d 506     -19.450  51.012 175.400  0.00  0.00     0.237 C 
ATOM     73  O5  IDS d 506     -18.323  50.203 175.474  0.00  0.00    -0.318 OA
BRANCH  67  74
ATOM     74  O2  IDS d 506     -15.969  51.864 175.852  0.00  0.00    -0.233 OA
BRANCH  74  75
ATOM     75  S   IDS d 506     -14.575  52.598 176.060  0.00  0.00     0.252 S 
ATOM     76  O1S IDS d 506     -14.643  53.161 177.373  0.00  0.00    -0.572 OA
ATOM     77  O2S IDS d 506     -13.535  51.612 175.974  0.00  0.00    -0.572 OA
ATOM     78  O3S IDS d 506     -14.503  53.596 175.014  0.00  0.00    -0.572 OA
ENDBRANCH  74  75
ENDBRANCH  67  74
BRANCH  72  79
ATOM     79  C6  IDS d 506     -20.586  50.364 176.170  0.00  0.00     0.217 C 
ATOM     80  O61 IDS d 506     -20.342  49.577 177.073  0.00  0.00    -0.646 OA
ATOM     81  O62 IDS d 506     -21.755  50.590 175.908  0.00  0.00    -0.646 OA
ENDBRANCH  72  79
ENDBRANCH  65  66
ENDBRANCH  56  65
BRANCH  58  82
ATOM     82  C6  SGN d 505     -15.858  48.139 176.881  0.00  0.00     0.198 C 
BRANCH  82  83
ATOM     83  O6  SGN d 505     -14.654  48.754 177.188  0.00  0.00    -0.235 OA
BRANCH  83  84
ATOM     84  S2  SGN d 505     -14.116  49.085 178.572  0.00  0.00     0.252 S 
ATOM     85  O6S SGN d 505     -12.673  49.238 178.440  0.00  0.00    -0.572 OA
ATOM     86  O4S SGN d 505     -14.776  50.318 178.937  0.00  0.00    -0.572 OA
ATOM     87  O5S SGN d 505     -14.479  47.950 179.383  0.00  0.00    -0.572 OA
ENDBRANCH  83  84
ENDBRANCH  82  83
ENDBRANCH  58  82
ENDBRANCH  52  53
ENDBRANCH   7  52
TORSDOF 27

ENDMDL
MODEL 31
REMARK VINA RESULT:       4.4      2.660      6.319
REMARK  27 active torsions:
REMARK  status: ('A' for Active; 'I' for Inactive)
REMARK    1  A    between atoms: C2_1  and  O2_78 
REMARK    2  A    between atoms: C1_3  and  O4_50 
REMARK    3  A    between atoms: O4_5  and  C4_58 
REMARK    4  A    between atoms: O4_5  and  C1_27 
REMARK    5  A    between atoms: C2_6  and  N_39 
REMARK    6  A    between atoms: S1_9  and  N_39 
REMARK    7  A    between atoms: C6_10  and  C5_52 
REMARK    8  A    between atoms: C2_12  and  N_73 
REMARK    9  A    between atoms: C2_19  and  O2_24 
REMARK   10  A    between atoms: C2_21  and  O2_44 
REMARK   11  A    between atoms: S2_23  and  O6_65 
REMARK   12  A    between atoms: O2_24  and  S_54 
REMARK   13  A    between atoms: C1_28  and  O4_60 
REMARK   14  A    between atoms: C5_29  and  C6_38 
REMARK   15  A    between atoms: C5_30  and  C6_33 
REMARK   16  A    between atoms: S1_34  and  N_73 
REMARK   17  A    between atoms: C5_41  and  C6_46 
REMARK   18  A    between atoms: S_43  and  O2_44 
REMARK   19  A    between atoms: C6_46  and  O6_72 
REMARK   20  A    between atoms: O4_50  and  C4_71 
REMARK   21  A    between atoms: C1_56  and  O4_64 
REMARK   22  A    between atoms: O4_60  and  C4_83 
REMARK   23  A    between atoms: C4_61  and  O4_64 
REMARK   24  A    between atoms: S2_63  and  O6_72 
REMARK   25  A    between atoms: O6_65  and  C6_67 
REMARK   26  A    between atoms: C6_67  and  C5_75 
REMARK   27  A    between atoms: S_76  and  O2_78 
ROOT
ATOM      1  C2  IDS d 504     -15.642  45.612 174.661  0.00  0.00     0.226 C 
ATOM      2  O3  IDS d 504     -16.338  44.376 172.660  0.00  0.00    -0.218 OA
ATOM      3  O5  IDS d 504     -15.009  47.567 173.352  0.00  0.00    -0.318 OA
ATOM      4  C5  IDS d 504     -14.811  46.813 172.178  0.00  0.00     0.234 C 
ATOM      5  C1  IDS d 504     -15.991  47.025 174.241  0.00  0.00     0.269 C 
ATOM      6  C3  IDS d 504     -15.199  44.714 173.442  0.00  0.00     0.216 C 
ATOM      7  C4  IDS d 504     -14.229  45.444 172.527  0.00  0.00     0.189 C 
ENDROOT
BRANCH   5   8
ATOM      8  O4  SGN d 503     -17.273  47.014 173.681  0.00  0.00    -0.326 OA
BRANCH   8   9
ATOM      9  C4  SGN d 503     -17.956  48.218 173.806  0.00  0.00     0.180 C 
ATOM     10  C3  SGN d 503     -17.735  48.757 175.217  0.00  0.00     0.210 C 
ATOM     11  C2  SGN d 503     -18.293  50.167 175.284  0.00  0.00     0.207 C 
ATOM     12  O3  SGN d 503     -18.431  47.920 176.122  0.00  0.00    -0.218 OA
ATOM     13  C1  SGN d 503     -17.720  51.055 174.170  0.00  0.00     0.263 C 
ATOM     14  O5  SGN d 503     -17.981  50.468 172.919  0.00  0.00    -0.327 OA
ATOM     15  C5  SGN d 503     -17.403  49.209 172.768  0.00  0.00     0.179 C 
BRANCH  11  16
ATOM     16  N   SGN d 503     -18.059  50.768 176.585  0.00  0.00    -0.162 NA
BRANCH  16  17
ATOM     17  S1  SGN d 503     -19.139  51.864 177.113  0.00  0.00     0.227 S 
ATOM     18  O1S SGN d 503     -18.710  52.246 178.445  0.00  0.00    -0.577 OA
ATOM     19  O2S SGN d 503     -19.131  52.996 176.188  0.00  0.00    -0.577 OA
ATOM     20  O3S SGN d 503     -20.382  51.126 177.123  0.00  0.00    -0.577 OA
ENDBRANCH  16  17
ENDBRANCH  11  16
BRANCH  13  21
ATOM     21  O4  IDS d 502     -16.348  51.272 174.358  0.00  0.00    -0.326 OA
BRANCH  21  22
ATOM     22  C4  IDS d 502     -15.982  52.617 174.526  0.00  0.00     0.189 C 
ATOM     23  C3  IDS d 502     -15.222  52.785 175.855  0.00  0.00     0.216 C 
ATOM     24  O3  IDS d 502     -15.037  54.164 176.108  0.00  0.00    -0.218 OA
ATOM     25  C2  IDS d 502     -13.841  52.126 175.784  0.00  0.00     0.229 C 
ATOM     26  C1  IDS d 502     -13.087  52.522 174.518  0.00  0.00     0.301 C 
ATOM     27  O1  IDS d 502     -12.664  53.852 174.666  0.00  0.00    -0.187 OA
ATOM     28  O5  IDS d 502     -13.876  52.330 173.371  0.00  0.00    -0.316 OA
ATOM     29  C5  IDS d 502     -15.093  53.050 173.362  0.00  0.00     0.234 C 
BRANCH  25  30
ATOM     30  O2  IDS d 502     -14.042  50.738 175.753  0.00  0.00    -0.232 OA
BRANCH  30  31
ATOM     31  S   IDS d 502     -13.847  49.717 176.922  0.00  0.00     0.252 S 
ATOM     32  O3S IDS d 502     -13.118  48.622 176.335  0.00  0.00    -0.572 OA
ATOM     33  O2S IDS d 502     -15.176  49.362 177.362  0.00  0.00    -0.572 OA
ATOM     34  O1S IDS d 502     -13.091  50.381 177.947  0.00  0.00    -0.572 OA
ENDBRANCH  30  31
ENDBRANCH  25  30
BRANCH  29  35
ATOM     35  C6  IDS d 502     -15.762  52.959 171.998  0.00  0.00     0.216 C 
ATOM     36  O61 IDS d 502     -16.795  53.539 171.766  0.00  0.00    -0.646 OA
ATOM     37  O62 IDS d 502     -15.269  52.302 171.101  0.00  0.00    -0.646 OA
ENDBRANCH  29  35
ENDBRANCH  21  22
ENDBRANCH  13  21
BRANCH  15  38
ATOM     38  C6  SGN d 503     -17.683  48.834 171.338  0.00  0.00     0.198 C 
BRANCH  38  39
ATOM     39  O6  SGN d 503     -19.057  49.056 171.101  0.00  0.00    -0.235 OA
BRANCH  39  40
ATOM     40  S2  SGN d 503     -20.112  47.958 170.806  0.00  0.00     0.252 S 
ATOM     41  O4S SGN d 503     -21.002  47.883 171.915  0.00  0.00    -0.572 OA
ATOM     42  O5S SGN d 503     -20.800  48.344 169.579  0.00  0.00    -0.572 OA
ATOM     43  O6S SGN d 503     -19.348  46.774 170.717  0.00  0.00    -0.572 OA
ENDBRANCH  39  40
ENDBRANCH  38  39
ENDBRANCH  15  38
ENDBRANCH   8   9
ENDBRANCH   5   8
BRANCH   1  44
ATOM     44  O2  IDS d 504     -14.603  45.677 175.635  0.00  0.00    -0.233 OA
BRANCH  44  45
ATOM     45  S   IDS d 504     -14.739  45.408 177.145  0.00  0.00     0.252 S 
ATOM     46  O3S IDS d 504     -15.873  46.168 177.518  0.00  0.00    -0.572 OA
ATOM     47  O2S IDS d 504     -13.512  45.808 177.769  0.00  0.00    -0.572 OA
ATOM     48  O1S IDS d 504     -14.966  44.016 177.284  0.00  0.00    -0.572 OA
ENDBRANCH  44  45
ENDBRANCH   1  44
BRANCH   4  49
ATOM     49  C6  IDS d 504     -14.005  47.622 171.149  0.00  0.00     0.216 C 
ATOM     50  O62 IDS d 504     -14.129  47.418 169.939  0.00  0.00    -0.646 OA
ATOM     51  O61 IDS d 504     -13.205  48.477 171.507  0.00  0.00    -0.646 OA
ENDBRANCH   4  49
BRANCH   7  52
ATOM     52  O4  IDS d 504     -12.983  45.598 173.191  0.00  0.00    -0.326 OA
BRANCH  52  53
ATOM     53  C1  SGN d 505     -12.077  44.557 172.946  0.00  0.00     0.263 C 
ATOM     54  C2  SGN d 505     -11.127  44.359 174.111  0.00  0.00     0.207 C 
ATOM     55  C3  SGN d 505     -10.198  45.578 174.271  0.00  0.00     0.210 C 
ATOM     56  C4  SGN d 505      -9.464  45.730 172.907  0.00  0.00     0.180 C 
ATOM     57  O3  SGN d 505      -9.268  45.303 175.311  0.00  0.00    -0.218 OA
ATOM     58  C5  SGN d 505     -10.522  45.938 171.873  0.00  0.00     0.179 C 
ATOM     59  O5  SGN d 505     -11.342  44.813 171.783  0.00  0.00    -0.327 OA
BRANCH  54  60
ATOM     60  N   SGN d 505     -11.903  43.990 175.318  0.00  0.00    -0.162 NA
BRANCH  60  61
ATOM     61  S1  SGN d 505     -11.414  42.629 176.165  0.00  0.00     0.227 S 
ATOM     62  O3S SGN d 505     -10.887  43.080 177.404  0.00  0.00    -0.577 OA
ATOM     63  O1S SGN d 505     -12.571  41.772 176.321  0.00  0.00    -0.577 OA
ATOM     64  O2S SGN d 505     -10.389  42.028 175.345  0.00  0.00    -0.577 OA
ENDBRANCH  60  61
ENDBRANCH  54  60
BRANCH  56  65
ATOM     65  O4  SGN d 505      -8.599  46.841 172.801  0.00  0.00    -0.326 OA
BRANCH  65  66
ATOM     66  C1  IDS d 506      -7.221  46.731 172.686  0.00  0.00     0.269 C 
ATOM     67  C2  IDS d 506      -6.610  48.140 172.674  0.00  0.00     0.226 C 
ATOM     68  C3  IDS d 506      -5.126  48.163 172.213  0.00  0.00     0.219 C 
ATOM     69  O3  IDS d 506      -4.300  47.853 173.333  0.00  0.00    -0.218 OA
ATOM     70  C4  IDS d 506      -4.812  47.163 171.080  0.00  0.00     0.223 C 
ATOM     71  O4  IDS d 506      -5.211  47.763 169.870  0.00  0.00    -0.217 OA
ATOM     72  C5  IDS d 506      -5.579  45.852 171.285  0.00  0.00     0.237 C 
ATOM     73  O5  IDS d 506      -6.933  46.113 171.458  0.00  0.00    -0.318 OA
BRANCH  67  74
ATOM     74  O2  IDS d 506      -7.327  48.973 171.784  0.00  0.00    -0.233 OA
BRANCH  74  75
ATOM     75  S   IDS d 506      -7.898  50.433 172.047  0.00  0.00     0.252 S 
ATOM     76  O1S IDS d 506      -9.259  50.234 172.441  0.00  0.00    -0.572 OA
ATOM     77  O2S IDS d 506      -7.136  51.026 173.109  0.00  0.00    -0.572 OA
ATOM     78  O3S IDS d 506      -7.766  51.133 170.788  0.00  0.00    -0.572 OA
ENDBRANCH  74  75
ENDBRANCH  67  74
BRANCH  72  79
ATOM     79  C6  IDS d 506      -5.403  44.788 170.217  0.00  0.00     0.217 C 
ATOM     80  O61 IDS d 506      -6.258  44.641 169.355  0.00  0.00    -0.646 OA
ATOM     81  O62 IDS d 506      -4.433  44.051 170.193  0.00  0.00    -0.646 OA
ENDBRANCH  72  79
ENDBRANCH  65  66
ENDBRANCH  56  65
BRANCH  58  82
ATOM     82  C6  SGN d 505      -9.962  46.159 170.506  0.00  0.00     0.198 C 
BRANCH  82  83
ATOM     83  O6  SGN d 505     -10.887  46.965 169.860  0.00  0.00    -0.235 OA
BRANCH  83  84
ATOM     84  S2  SGN d 505     -10.600  48.094 168.881  0.00  0.00     0.252 S 
ATOM     85  O6S SGN d 505     -11.759  48.199 168.004  0.00  0.00    -0.572 OA
ATOM     86  O4S SGN d 505     -10.422  49.264 169.712  0.00  0.00    -0.572 OA
ATOM     87  O5S SGN d 505      -9.413  47.673 168.180  0.00  0.00    -0.572 OA
ENDBRANCH  83  84
ENDBRANCH  82  83
ENDBRANCH  58  82
ENDBRANCH  52  53
ENDBRANCH   7  52
TORSDOF 27

ENDMDL
MODEL 32
REMARK VINA RESULT:       4.4      4.893     10.291
REMARK  27 active torsions:
REMARK  status: ('A' for Active; 'I' for Inactive)
REMARK    1  A    between atoms: C2_1  and  O2_78 
REMARK    2  A    between atoms: C1_3  and  O4_50 
REMARK    3  A    between atoms: O4_5  and  C4_58 
REMARK    4  A    between atoms: O4_5  and  C1_27 
REMARK    5  A    between atoms: C2_6  and  N_39 
REMARK    6  A    between atoms: S1_9  and  N_39 
REMARK    7  A    between atoms: C6_10  and  C5_52 
REMARK    8  A    between atoms: C2_12  and  N_73 
REMARK    9  A    between atoms: C2_19  and  O2_24 
REMARK   10  A    between atoms: C2_21  and  O2_44 
REMARK   11  A    between atoms: S2_23  and  O6_65 
REMARK   12  A    between atoms: O2_24  and  S_54 
REMARK   13  A    between atoms: C1_28  and  O4_60 
REMARK   14  A    between atoms: C5_29  and  C6_38 
REMARK   15  A    between atoms: C5_30  and  C6_33 
REMARK   16  A    between atoms: S1_34  and  N_73 
REMARK   17  A    between atoms: C5_41  and  C6_46 
REMARK   18  A    between atoms: S_43  and  O2_44 
REMARK   19  A    between atoms: C6_46  and  O6_72 
REMARK   20  A    between atoms: O4_50  and  C4_71 
REMARK   21  A    between atoms: C1_56  and  O4_64 
REMARK   22  A    between atoms: O4_60  and  C4_83 
REMARK   23  A    between atoms: C4_61  and  O4_64 
REMARK   24  A    between atoms: S2_63  and  O6_72 
REMARK   25  A    between atoms: O6_65  and  C6_67 
REMARK   26  A    between atoms: C6_67  and  C5_75 
REMARK   27  A    between atoms: S_76  and  O2_78 
ROOT
ATOM      1  C2  IDS d 504     -13.720  50.488 175.688  0.00  0.00     0.226 C 
ATOM      2  O3  IDS d 504     -12.365  51.831 174.147  0.00  0.00    -0.218 OA
ATOM      3  O5  IDS d 504     -15.248  49.816 173.913  0.00  0.00    -0.318 OA
ATOM      4  C5  IDS d 504     -14.944  50.942 173.120  0.00  0.00     0.234 C 
ATOM      5  C1  IDS d 504     -14.175  49.383 174.756  0.00  0.00     0.269 C 
ATOM      6  C3  IDS d 504     -13.542  51.867 174.945  0.00  0.00     0.216 C 
ATOM      7  C4  IDS d 504     -14.706  52.159 174.011  0.00  0.00     0.189 C 
ENDROOT
BRANCH   5   8
ATOM      8  O4  SGN d 503     -13.067  48.938 174.028  0.00  0.00    -0.326 OA
BRANCH   8   9
ATOM      9  C4  SGN d 503     -13.092  47.580 173.732  0.00  0.00     0.180 C 
ATOM     10  C3  SGN d 503     -13.816  46.851 174.862  0.00  0.00     0.210 C 
ATOM     11  C2  SGN d 503     -14.037  45.411 174.437  0.00  0.00     0.207 C 
ATOM     12  O3  SGN d 503     -12.993  46.894 176.012  0.00  0.00    -0.218 OA
ATOM     13  C1  SGN d 503     -14.740  45.324 173.075  0.00  0.00     0.263 C 
ATOM     14  O5  SGN d 503     -13.990  46.023 172.113  0.00  0.00    -0.327 OA
ATOM     15  C5  SGN d 503     -13.843  47.378 172.404  0.00  0.00     0.179 C 
BRANCH  11  16
ATOM     16  N   SGN d 503     -14.780  44.671 175.441  0.00  0.00    -0.162 NA
BRANCH  16  17
ATOM     17  S1  SGN d 503     -14.170  43.244 175.931  0.00  0.00     0.227 S 
ATOM     18  O1S SGN d 503     -14.486  43.131 177.342  0.00  0.00    -0.577 OA
ATOM     19  O2S SGN d 503     -14.797  42.184 175.141  0.00  0.00    -0.577 OA
ATOM     20  O3S SGN d 503     -12.752  43.390 175.691  0.00  0.00    -0.577 OA
ENDBRANCH  16  17
ENDBRANCH  11  16
BRANCH  13  21
ATOM     21  O4  IDS d 502     -16.051  45.811 173.156  0.00  0.00    -0.326 OA
BRANCH  21  22
ATOM     22  C4  IDS d 502     -17.038  44.927 172.690  0.00  0.00     0.189 C 
ATOM     23  C3  IDS d 502     -17.850  44.384 173.881  0.00  0.00     0.216 C 
ATOM     24  O3  IDS d 502     -18.700  43.350 173.424  0.00  0.00    -0.218 OA
ATOM     25  C2  IDS d 502     -18.725  45.482 174.493  0.00  0.00     0.229 C 
ATOM     26  C1  IDS d 502     -19.510  46.243 173.429  0.00  0.00     0.301 C 
ATOM     27  O1  IDS d 502     -20.537  45.405 172.969  0.00  0.00    -0.187 OA
ATOM     28  O5  IDS d 502     -18.670  46.687 172.394  0.00  0.00    -0.316 OA
ATOM     29  C5  IDS d 502     -17.963  45.662 171.723  0.00  0.00     0.234 C 
BRANCH  25  30
ATOM     30  O2  IDS d 502     -17.868  46.389 175.134  0.00  0.00    -0.232 OA
BRANCH  30  31
ATOM     31  S   IDS d 502     -17.672  46.598 176.671  0.00  0.00     0.252 S 
ATOM     32  O3S IDS d 502     -17.477  45.273 177.200  0.00  0.00    -0.572 OA
ATOM     33  O2S IDS d 502     -18.877  47.241 177.139  0.00  0.00    -0.572 OA
ATOM     34  O1S IDS d 502     -16.510  47.425 176.844  0.00  0.00    -0.572 OA
ENDBRANCH  30  31
ENDBRANCH  25  30
BRANCH  29  35
ATOM     35  C6  IDS d 502     -17.266  46.210 170.486  0.00  0.00     0.216 C 
ATOM     36  O61 IDS d 502     -17.514  47.313 170.063  0.00  0.00    -0.646 OA
ATOM     37  O62 IDS d 502     -16.435  45.551 169.892  0.00  0.00    -0.646 OA
ENDBRANCH  29  35
ENDBRANCH  21  22
ENDBRANCH  13  21
BRANCH  15  38
ATOM     38  C6  SGN d 503     -13.144  47.950 171.201  0.00  0.00     0.198 C 
BRANCH  38  39
ATOM     39  O6  SGN d 503     -14.078  47.986 170.144  0.00  0.00    -0.235 OA
BRANCH  39  40
ATOM     40  S2  SGN d 503     -13.816  47.508 168.691  0.00  0.00     0.252 S 
ATOM     41  O4S SGN d 503     -12.670  48.191 168.195  0.00  0.00    -0.572 OA
ATOM     42  O5S SGN d 503     -13.608  46.064 168.747  0.00  0.00    -0.572 OA
ATOM     43  O6S SGN d 503     -14.968  47.920 167.989  0.00  0.00    -0.572 OA
ENDBRANCH  39  40
ENDBRANCH  38  39
ENDBRANCH  15  38
ENDBRANCH   8   9
ENDBRANCH   5   8
BRANCH   1  44
ATOM     44  O2  IDS d 504     -14.676  50.608 176.740  0.00  0.00    -0.233 OA
BRANCH  44  45
ATOM     45  S   IDS d 504     -14.382  50.931 178.217  0.00  0.00     0.252 S 
ATOM     46  O3S IDS d 504     -13.489  49.907 178.611  0.00  0.00    -0.572 OA
ATOM     47  O2S IDS d 504     -15.634  50.942 178.915  0.00  0.00    -0.572 OA
ATOM     48  O1S IDS d 504     -13.764  52.207 178.232  0.00  0.00    -0.572 OA
ENDBRANCH  44  45
ENDBRANCH   1  44
BRANCH   4  49
ATOM     49  C6  IDS d 504     -16.008  51.131 172.026  0.00  0.00     0.216 C 
ATOM     50  O62 IDS d 504     -16.680  50.181 171.620  0.00  0.00    -0.646 OA
ATOM     51  O61 IDS d 504     -16.201  52.229 171.519  0.00  0.00    -0.646 OA
ENDBRANCH   4  49
BRANCH   7  52
ATOM     52  O4  IDS d 504     -15.867  52.437 174.780  0.00  0.00    -0.326 OA
BRANCH  52  53
ATOM     53  C1  SGN d 505     -15.754  53.581 175.582  0.00  0.00     0.263 C 
ATOM     54  C2  SGN d 505     -17.061  53.902 176.281  0.00  0.00     0.207 C 
ATOM     55  C3  SGN d 505     -18.139  54.315 175.260  0.00  0.00     0.210 C 
ATOM     56  C4  SGN d 505     -17.546  55.532 174.491  0.00  0.00     0.180 C 
ATOM     57  O3  SGN d 505     -19.311  54.697 175.969  0.00  0.00    -0.218 OA
ATOM     58  C5  SGN d 505     -16.286  55.055 173.844  0.00  0.00     0.179 C 
ATOM     59  O5  SGN d 505     -15.355  54.680 174.813  0.00  0.00    -0.327 OA
BRANCH  54  60
ATOM     60  N   SGN d 505     -17.430  52.777 177.171  0.00  0.00    -0.162 NA
BRANCH  60  61
ATOM     61  S1  SGN d 505     -18.451  51.602 176.552  0.00  0.00     0.227 S 
ATOM     62  O3S SGN d 505     -18.636  51.898 175.175  0.00  0.00    -0.577 OA
ATOM     63  O1S SGN d 505     -17.825  50.316 176.775  0.00  0.00    -0.577 OA
ATOM     64  O2S SGN d 505     -19.683  51.752 177.291  0.00  0.00    -0.577 OA
ENDBRANCH  60  61
ENDBRANCH  54  60
BRANCH  56  65
ATOM     65  O4  SGN d 505     -18.347  56.040 173.445  0.00  0.00    -0.326 OA
BRANCH  65  66
ATOM     66  C1  IDS d 506     -19.583  56.635 173.645  0.00  0.00     0.269 C 
ATOM     67  C2  IDS d 506     -20.148  57.077 172.287  0.00  0.00     0.226 C 
ATOM     68  C3  IDS d 506     -21.356  58.047 172.410  0.00  0.00     0.219 C 
ATOM     69  O3  IDS d 506     -22.538  57.275 172.610  0.00  0.00    -0.218 OA
ATOM     70  C4  IDS d 506     -21.227  59.057 173.570  0.00  0.00     0.223 C 
ATOM     71  O4  IDS d 506     -20.408  60.110 173.118  0.00  0.00    -0.217 OA
ATOM     72  C5  IDS d 506     -20.588  58.395 174.796  0.00  0.00     0.237 C 
ATOM     73  O5  IDS d 506     -19.395  57.779 174.439  0.00  0.00    -0.318 OA
BRANCH  67  74
ATOM     74  O2  IDS d 506     -19.154  57.753 171.543  0.00  0.00    -0.233 OA
BRANCH  74  75
ATOM     75  S   IDS d 506     -18.660  57.456 170.063  0.00  0.00     0.252 S 
ATOM     76  O1S IDS d 506     -19.766  56.810 169.425  0.00  0.00    -0.572 OA
ATOM     77  O2S IDS d 506     -18.361  58.710 169.432  0.00  0.00    -0.572 OA
ATOM     78  O3S IDS d 506     -17.504  56.597 170.205  0.00  0.00    -0.572 OA
ENDBRANCH  74  75
ENDBRANCH  67  74
BRANCH  72  79
ATOM     79  C6  IDS d 506     -20.354  59.285 176.002  0.00  0.00     0.217 C 
ATOM     80  O61 IDS d 506     -21.230  60.054 176.375  0.00  0.00    -0.646 OA
ATOM     81  O62 IDS d 506     -19.302  59.276 176.618  0.00  0.00    -0.646 OA
ENDBRANCH  72  79
ENDBRANCH  65  66
ENDBRANCH  56  65
BRANCH  58  82
ATOM     82  C6  SGN d 505     -15.626  56.109 173.015  0.00  0.00     0.198 C 
BRANCH  82  83
ATOM     83  O6  SGN d 505     -15.166  57.050 173.923  0.00  0.00    -0.235 OA
BRANCH  83  84
ATOM     84  S2  SGN d 505     -15.479  58.539 173.944  0.00  0.00     0.252 S 
ATOM     85  O6S SGN d 505     -14.206  59.239 174.042  0.00  0.00    -0.572 OA
ATOM     86  O4S SGN d 505     -16.159  58.790 172.693  0.00  0.00    -0.572 OA
ATOM     87  O5S SGN d 505     -16.299  58.720 175.117  0.00  0.00    -0.572 OA
ENDBRANCH  83  84
ENDBRANCH  82  83
ENDBRANCH  58  82
ENDBRANCH  52  53
ENDBRANCH   7  52
TORSDOF 27

ENDMDL
MODEL 33
REMARK VINA RESULT:       4.4      2.880      5.169
REMARK  27 active torsions:
REMARK  status: ('A' for Active; 'I' for Inactive)
REMARK    1  A    between atoms: C2_1  and  O2_78 
REMARK    2  A    between atoms: C1_3  and  O4_50 
REMARK    3  A    between atoms: O4_5  and  C4_58 
REMARK    4  A    between atoms: O4_5  and  C1_27 
REMARK    5  A    between atoms: C2_6  and  N_39 
REMARK    6  A    between atoms: S1_9  and  N_39 
REMARK    7  A    between atoms: C6_10  and  C5_52 
REMARK    8  A    between atoms: C2_12  and  N_73 
REMARK    9  A    between atoms: C2_19  and  O2_24 
REMARK   10  A    between atoms: C2_21  and  O2_44 
REMARK   11  A    between atoms: S2_23  and  O6_65 
REMARK   12  A    between atoms: O2_24  and  S_54 
REMARK   13  A    between atoms: C1_28  and  O4_60 
REMARK   14  A    between atoms: C5_29  and  C6_38 
REMARK   15  A    between atoms: C5_30  and  C6_33 
REMARK   16  A    between atoms: S1_34  and  N_73 
REMARK   17  A    between atoms: C5_41  and  C6_46 
REMARK   18  A    between atoms: S_43  and  O2_44 
REMARK   19  A    between atoms: C6_46  and  O6_72 
REMARK   20  A    between atoms: O4_50  and  C4_71 
REMARK   21  A    between atoms: C1_56  and  O4_64 
REMARK   22  A    between atoms: O4_60  and  C4_83 
REMARK   23  A    between atoms: C4_61  and  O4_64 
REMARK   24  A    between atoms: S2_63  and  O6_72 
REMARK   25  A    between atoms: O6_65  and  C6_67 
REMARK   26  A    between atoms: C6_67  and  C5_75 
REMARK   27  A    between atoms: S_76  and  O2_78 
ROOT
ATOM      1  C2  IDS d 504     -19.538  50.715 174.604  0.00  0.00     0.226 C 
ATOM      2  O3  IDS d 504     -19.993  50.649 177.013  0.00  0.00    -0.218 OA
ATOM      3  O5  IDS d 504     -19.213  48.302 174.502  0.00  0.00    -0.318 OA
ATOM      4  C5  IDS d 504     -18.878  48.212 175.868  0.00  0.00     0.234 C 
ATOM      5  C1  IDS d 504     -20.107  49.374 174.184  0.00  0.00     0.269 C 
ATOM      6  C3  IDS d 504     -18.937  50.684 176.062  0.00  0.00     0.216 C 
ATOM      7  C4  IDS d 504     -18.085  49.446 176.294  0.00  0.00     0.189 C 
ENDROOT
BRANCH   5   8
ATOM      8  O4  SGN d 503     -21.361  49.222 174.784  0.00  0.00    -0.326 OA
BRANCH   8   9
ATOM      9  C4  SGN d 503     -22.195  48.320 174.133  0.00  0.00     0.180 C 
ATOM     10  C3  SGN d 503     -21.781  48.252 172.664  0.00  0.00     0.210 C 
ATOM     11  C2  SGN d 503     -22.540  47.114 172.007  0.00  0.00     0.207 C 
ATOM     12  O3  SGN d 503     -22.128  49.479 172.052  0.00  0.00    -0.218 OA
ATOM     13  C1  SGN d 503     -22.363  45.796 172.776  0.00  0.00     0.263 C 
ATOM     14  O5  SGN d 503     -22.774  45.972 174.109  0.00  0.00    -0.327 OA
ATOM     15  C5  SGN d 503     -22.038  46.938 174.792  0.00  0.00     0.179 C 
BRANCH  11  16
ATOM     16  N   SGN d 503     -22.148  46.949 170.618  0.00  0.00    -0.162 NA
BRANCH  16  17
ATOM     17  S1  SGN d 503     -23.332  46.866 169.505  0.00  0.00     0.227 S 
ATOM     18  O1S SGN d 503     -23.345  45.496 169.028  0.00  0.00    -0.577 OA
ATOM     19  O2S SGN d 503     -24.592  47.234 170.151  0.00  0.00    -0.577 OA
ATOM     20  O3S SGN d 503     -22.900  47.801 168.491  0.00  0.00    -0.577 OA
ENDBRANCH  16  17
ENDBRANCH  11  16
BRANCH  13  21
ATOM     21  O4  IDS d 502     -21.037  45.348 172.702  0.00  0.00    -0.326 OA
BRANCH  21  22
ATOM     22  C4  IDS d 502     -20.880  44.060 172.166  0.00  0.00     0.189 C 
ATOM     23  C3  IDS d 502     -20.212  44.155 170.781  0.00  0.00     0.216 C 
ATOM     24  O3  IDS d 502     -20.243  42.881 170.168  0.00  0.00    -0.218 OA
ATOM     25  C2  IDS d 502     -18.748  44.585 170.907  0.00  0.00     0.229 C 
ATOM     26  C1  IDS d 502     -18.005  43.773 171.963  0.00  0.00     0.301 C 
ATOM     27  O1  IDS d 502     -17.788  42.487 171.444  0.00  0.00    -0.187 OA
ATOM     28  O5  IDS d 502     -18.706  43.754 173.180  0.00  0.00    -0.316 OA
ATOM     29  C5  IDS d 502     -20.014  43.221 173.103  0.00  0.00     0.234 C 
BRANCH  25  30
ATOM     30  O2  IDS d 502     -18.742  45.929 171.309  0.00  0.00    -0.232 OA
BRANCH  30  31
ATOM     31  S   IDS d 502     -17.687  47.029 170.958  0.00  0.00     0.252 S 
ATOM     32  O3S IDS d 502     -17.099  46.592 169.718  0.00  0.00    -0.572 OA
ATOM     33  O2S IDS d 502     -16.759  47.055 172.065  0.00  0.00    -0.572 OA
ATOM     34  O1S IDS d 502     -18.397  48.269 170.811  0.00  0.00    -0.572 OA
ENDBRANCH  30  31
ENDBRANCH  25  30
BRANCH  29  35
ATOM     35  C6  IDS d 502     -20.601  43.032 174.494  0.00  0.00     0.216 C 
ATOM     36  O61 IDS d 502     -20.047  43.469 175.473  0.00  0.00    -0.646 OA
ATOM     37  O62 IDS d 502     -21.651  42.439 174.656  0.00  0.00    -0.646 OA
ENDBRANCH  29  35
ENDBRANCH  21  22
ENDBRANCH  13  21
BRANCH  15  38
ATOM     38  C6  SGN d 503     -22.539  46.865 176.209  0.00  0.00     0.198 C 
BRANCH  38  39
ATOM     39  O6  SGN d 503     -22.581  45.503 176.575  0.00  0.00    -0.235 OA
BRANCH  39  40
ATOM     40  S2  SGN d 503     -22.204  44.930 177.967  0.00  0.00     0.252 S 
ATOM     41  O4S SGN d 503     -23.018  45.566 178.947  0.00  0.00    -0.572 OA
ATOM     42  O5S SGN d 503     -22.438  43.490 177.914  0.00  0.00    -0.572 OA
ATOM     43  O6S SGN d 503     -20.856  45.312 178.133  0.00  0.00    -0.572 OA
ENDBRANCH  39  40
ENDBRANCH  38  39
ENDBRANCH  15  38
ENDBRANCH   8   9
ENDBRANCH   5   8
BRANCH   1  44
ATOM     44  O2  IDS d 504     -18.537  51.092 173.660  0.00  0.00    -0.233 OA
BRANCH  44  45
ATOM     45  S   IDS d 504     -18.274  52.508 173.115  0.00  0.00     0.252 S 
ATOM     46  O3S IDS d 504     -17.271  52.308 172.138  0.00  0.00    -0.572 OA
ATOM     47  O2S IDS d 504     -17.883  53.332 174.221  0.00  0.00    -0.572 OA
ATOM     48  O1S IDS d 504     -19.492  52.948 172.540  0.00  0.00    -0.572 OA
ENDBRANCH  44  45
ENDBRANCH   1  44
BRANCH   4  49
ATOM     49  C6  IDS d 504     -18.199  46.865 176.166  0.00  0.00     0.216 C 
ATOM     50  O62 IDS d 504     -17.981  46.048 175.269  0.00  0.00    -0.646 OA
ATOM     51  O61 IDS d 504     -17.874  46.563 177.308  0.00  0.00    -0.646 OA
ENDBRANCH   4  49
BRANCH   7  52
ATOM     52  O4  IDS d 504     -16.891  49.547 175.533  0.00  0.00    -0.326 OA
BRANCH  52  53
ATOM     53  C1  SGN d 505     -15.720  49.466 176.300  0.00  0.00     0.263 C 
ATOM     54  C2  SGN d 505     -14.648  50.405 175.782  0.00  0.00     0.207 C 
ATOM     55  C3  SGN d 505     -14.164  49.964 174.386  0.00  0.00     0.210 C 
ATOM     56  C4  SGN d 505     -13.660  48.502 174.559  0.00  0.00     0.180 C 
ATOM     57  O3  SGN d 505     -13.098  50.816 173.989  0.00  0.00    -0.218 OA
ATOM     58  C5  SGN d 505     -14.824  47.703 175.049  0.00  0.00     0.179 C 
ATOM     59  O5  SGN d 505     -15.229  48.156 176.305  0.00  0.00    -0.327 OA
BRANCH  54  60
ATOM     60  N   SGN d 505     -15.135  51.801 175.872  0.00  0.00    -0.162 NA
BRANCH  60  61
ATOM     61  S1  SGN d 505     -14.990  52.577 177.350  0.00  0.00     0.227 S 
ATOM     62  O3S SGN d 505     -13.816  52.072 177.969  0.00  0.00    -0.577 OA
ATOM     63  O1S SGN d 505     -14.926  54.001 177.092  0.00  0.00    -0.577 OA
ATOM     64  O2S SGN d 505     -16.175  52.203 178.085  0.00  0.00    -0.577 OA
ENDBRANCH  60  61
ENDBRANCH  54  60
BRANCH  56  65
ATOM     65  O4  SGN d 505     -13.226  47.863 173.377  0.00  0.00    -0.326 OA
BRANCH  65  66
ATOM     66  C1  IDS d 506     -12.155  48.306 172.615  0.00  0.00     0.269 C 
ATOM     67  C2  IDS d 506     -12.184  47.592 171.256  0.00  0.00     0.226 C 
ATOM     68  C3  IDS d 506     -10.863  47.746 170.452  0.00  0.00     0.219 C 
ATOM     69  O3  IDS d 506     -10.898  48.991 169.759  0.00  0.00    -0.218 OA
ATOM     70  C4  IDS d 506      -9.594  47.709 171.330  0.00  0.00     0.223 C 
ATOM     71  O4  IDS d 506      -9.299  46.354 171.581  0.00  0.00    -0.217 OA
ATOM     72  C5  IDS d 506      -9.829  48.441 172.655  0.00  0.00     0.237 C 
ATOM     73  O5  IDS d 506     -10.969  47.949 173.278  0.00  0.00    -0.318 OA
BRANCH  67  74
ATOM     74  O2  IDS d 506     -12.392  46.206 171.439  0.00  0.00    -0.233 OA
BRANCH  74  75
ATOM     75  S   IDS d 506     -13.232  45.208 170.530  0.00  0.00     0.252 S 
ATOM     76  O1S IDS d 506     -13.608  45.976 169.384  0.00  0.00    -0.572 OA
ATOM     77  O2S IDS d 506     -12.378  44.114 170.161  0.00  0.00    -0.572 OA
ATOM     78  O3S IDS d 506     -14.361  44.804 171.341  0.00  0.00    -0.572 OA
ENDBRANCH  74  75
ENDBRANCH  67  74
BRANCH  72  79
ATOM     79  C6  IDS d 506      -8.677  48.444 173.643  0.00  0.00     0.217 C 
ATOM     80  O61 IDS d 506      -8.885  48.208 174.825  0.00  0.00    -0.646 OA
ATOM     81  O62 IDS d 506      -7.533  48.691 173.302  0.00  0.00    -0.646 OA
ENDBRANCH  72  79
ENDBRANCH  65  66
ENDBRANCH  56  65
BRANCH  58  82
ATOM     82  C6  SGN d 505     -14.506  46.252 175.209  0.00  0.00     0.198 C 
BRANCH  82  83
ATOM     83  O6  SGN d 505     -13.734  46.174 176.359  0.00  0.00    -0.235 OA
BRANCH  83  84
ATOM     84  S2  SGN d 505     -12.424  45.421 176.540  0.00  0.00     0.252 S 
ATOM     85  O6S SGN d 505     -11.352  46.352 176.216  0.00  0.00    -0.572 OA
ATOM     86  O4S SGN d 505     -12.418  45.025 177.930  0.00  0.00    -0.572 OA
ATOM     87  O5S SGN d 505     -12.505  44.325 175.606  0.00  0.00    -0.572 OA
ENDBRANCH  83  84
ENDBRANCH  82  83
ENDBRANCH  58  82
ENDBRANCH  52  53
ENDBRANCH   7  52
TORSDOF 27

ENDMDL
MODEL 34
REMARK VINA RESULT:       4.4      3.457     10.042
REMARK  27 active torsions:
REMARK  status: ('A' for Active; 'I' for Inactive)
REMARK    1  A    between atoms: C2_1  and  O2_78 
REMARK    2  A    between atoms: C1_3  and  O4_50 
REMARK    3  A    between atoms: O4_5  and  C4_58 
REMARK    4  A    between atoms: O4_5  and  C1_27 
REMARK    5  A    between atoms: C2_6  and  N_39 
REMARK    6  A    between atoms: S1_9  and  N_39 
REMARK    7  A    between atoms: C6_10  and  C5_52 
REMARK    8  A    between atoms: C2_12  and  N_73 
REMARK    9  A    between atoms: C2_19  and  O2_24 
REMARK   10  A    between atoms: C2_21  and  O2_44 
REMARK   11  A    between atoms: S2_23  and  O6_65 
REMARK   12  A    between atoms: O2_24  and  S_54 
REMARK   13  A    between atoms: C1_28  and  O4_60 
REMARK   14  A    between atoms: C5_29  and  C6_38 
REMARK   15  A    between atoms: C5_30  and  C6_33 
REMARK   16  A    between atoms: S1_34  and  N_73 
REMARK   17  A    between atoms: C5_41  and  C6_46 
REMARK   18  A    between atoms: S_43  and  O2_44 
REMARK   19  A    between atoms: C6_46  and  O6_72 
REMARK   20  A    between atoms: O4_50  and  C4_71 
REMARK   21  A    between atoms: C1_56  and  O4_64 
REMARK   22  A    between atoms: O4_60  and  C4_83 
REMARK   23  A    between atoms: C4_61  and  O4_64 
REMARK   24  A    between atoms: S2_63  and  O6_72 
REMARK   25  A    between atoms: O6_65  and  C6_67 
REMARK   26  A    between atoms: C6_67  and  C5_75 
REMARK   27  A    between atoms: S_76  and  O2_78 
ROOT
ATOM      1  C2  IDS d 504     -13.882  50.745 175.869  0.00  0.00     0.226 C 
ATOM      2  O3  IDS d 504     -12.473  52.052 174.345  0.00  0.00    -0.218 OA
ATOM      3  O5  IDS d 504     -14.934  49.550 174.025  0.00  0.00    -0.318 OA
ATOM      4  C5  IDS d 504     -14.656  50.576 173.100  0.00  0.00     0.234 C 
ATOM      5  C1  IDS d 504     -13.987  49.447 175.094  0.00  0.00     0.269 C 
ATOM      6  C3  IDS d 504     -13.771  52.004 174.925  0.00  0.00     0.216 C 
ATOM      7  C4  IDS d 504     -14.769  51.939 173.779  0.00  0.00     0.189 C 
ENDROOT
BRANCH   5   8
ATOM      8  O4  SGN d 503     -12.710  49.098 174.645  0.00  0.00    -0.326 OA
BRANCH   8   9
ATOM      9  C4  SGN d 503     -12.511  47.728 174.510  0.00  0.00     0.180 C 
ATOM     10  C3  SGN d 503     -13.282  47.016 175.619  0.00  0.00     0.210 C 
ATOM     11  C2  SGN d 503     -13.247  45.524 175.343  0.00  0.00     0.207 C 
ATOM     12  O3  SGN d 503     -12.640  47.294 176.850  0.00  0.00    -0.218 OA
ATOM     13  C1  SGN d 503     -13.735  45.199 173.924  0.00  0.00     0.263 C 
ATOM     14  O5  SGN d 503     -12.958  45.903 172.987  0.00  0.00    -0.327 OA
ATOM     15  C5  SGN d 503     -13.036  47.287 173.133  0.00  0.00     0.179 C 
BRANCH  11  16
ATOM     16  N   SGN d 503     -14.018  44.785 176.328  0.00  0.00    -0.162 NA
BRANCH  16  17
ATOM     17  S1  SGN d 503     -13.258  43.600 177.144  0.00  0.00     0.227 S 
ATOM     18  O1S SGN d 503     -12.615  42.768 176.144  0.00  0.00    -0.577 OA
ATOM     19  O2S SGN d 503     -12.291  44.216 178.050  0.00  0.00    -0.577 OA
ATOM     20  O3S SGN d 503     -14.339  42.917 177.819  0.00  0.00    -0.577 OA
ENDBRANCH  16  17
ENDBRANCH  11  16
BRANCH  13  21
ATOM     21  O4  IDS d 502     -15.098  45.493 173.784  0.00  0.00    -0.326 OA
BRANCH  21  22
ATOM     22  C4  IDS d 502     -15.897  44.406 173.394  0.00  0.00     0.189 C 
ATOM     23  C3  IDS d 502     -16.881  44.054 174.526  0.00  0.00     0.216 C 
ATOM     24  O3  IDS d 502     -17.535  42.842 174.206  0.00  0.00    -0.218 OA
ATOM     25  C2  IDS d 502     -17.947  45.143 174.684  0.00  0.00     0.229 C 
ATOM     26  C1  IDS d 502     -18.567  45.530 173.345  0.00  0.00     0.301 C 
ATOM     27  O1  IDS d 502     -19.410  44.484 172.942  0.00  0.00    -0.187 OA
ATOM     28  O5  IDS d 502     -17.578  45.826 172.391  0.00  0.00    -0.316 OA
ATOM     29  C5  IDS d 502     -16.672  44.773 172.130  0.00  0.00     0.234 C 
BRANCH  25  30
ATOM     30  O2  IDS d 502     -17.310  46.275 175.213  0.00  0.00    -0.232 OA
BRANCH  30  31
ATOM     31  S   IDS d 502     -17.677  47.059 176.516  0.00  0.00     0.252 S 
ATOM     32  O3S IDS d 502     -16.646  46.708 177.458  0.00  0.00    -0.572 OA
ATOM     33  O2S IDS d 502     -18.993  46.601 176.894  0.00  0.00    -0.572 OA
ATOM     34  O1S IDS d 502     -17.658  48.458 176.191  0.00  0.00    -0.572 OA
ENDBRANCH  30  31
ENDBRANCH  25  30
BRANCH  29  35
ATOM     35  C6  IDS d 502     -15.792  45.104 170.932  0.00  0.00     0.216 C 
ATOM     36  O61 IDS d 502     -14.881  44.383 170.605  0.00  0.00    -0.646 OA
ATOM     37  O62 IDS d 502     -15.988  46.104 170.269  0.00  0.00    -0.646 OA
ENDBRANCH  29  35
ENDBRANCH  21  22
ENDBRANCH  13  21
BRANCH  15  38
ATOM     38  C6  SGN d 503     -12.259  47.835 171.967  0.00  0.00     0.198 C 
BRANCH  38  39
ATOM     39  O6  SGN d 503     -13.190  48.352 171.041  0.00  0.00    -0.235 OA
BRANCH  39  40
ATOM     40  S2  SGN d 503     -13.083  48.243 169.497  0.00  0.00     0.252 S 
ATOM     41  O4S SGN d 503     -14.349  48.575 168.937  0.00  0.00    -0.572 OA
ATOM     42  O5S SGN d 503     -12.039  49.171 169.073  0.00  0.00    -0.572 OA
ATOM     43  O6S SGN d 503     -12.798  46.879 169.275  0.00  0.00    -0.572 OA
ENDBRANCH  39  40
ENDBRANCH  38  39
ENDBRANCH  15  38
ENDBRANCH   8   9
ENDBRANCH   5   8
BRANCH   1  44
ATOM     44  O2  IDS d 504     -15.024  50.856 176.715  0.00  0.00    -0.233 OA
BRANCH  44  45
ATOM     45  S   IDS d 504     -15.039  51.308 178.187  0.00  0.00     0.252 S 
ATOM     46  O3S IDS d 504     -14.062  52.331 178.231  0.00  0.00    -0.572 OA
ATOM     47  O2S IDS d 504     -14.748  50.161 178.996  0.00  0.00    -0.572 OA
ATOM     48  O1S IDS d 504     -16.341  51.809 178.438  0.00  0.00    -0.572 OA
ENDBRANCH  44  45
ENDBRANCH   1  44
BRANCH   4  49
ATOM     49  C6  IDS d 504     -15.512  50.404 171.834  0.00  0.00     0.216 C 
ATOM     50  O62 IDS d 504     -16.275  49.444 171.706  0.00  0.00    -0.646 OA
ATOM     51  O61 IDS d 504     -15.444  51.209 170.914  0.00  0.00    -0.646 OA
ENDBRANCH   4  49
BRANCH   7  52
ATOM     52  O4  IDS d 504     -16.082  52.123 174.290  0.00  0.00    -0.326 OA
BRANCH  52  53
ATOM     53  C1  SGN d 505     -16.698  53.305 173.856  0.00  0.00     0.263 C 
ATOM     54  C2  SGN d 505     -17.360  54.042 175.004  0.00  0.00     0.207 C 
ATOM     55  C3  SGN d 505     -18.547  53.231 175.562  0.00  0.00     0.210 C 
ATOM     56  C4  SGN d 505     -19.503  53.002 174.355  0.00  0.00     0.180 C 
ATOM     57  O3  SGN d 505     -19.189  54.005 176.567  0.00  0.00    -0.218 OA
ATOM     58  C5  SGN d 505     -18.720  52.253 173.326  0.00  0.00     0.179 C 
ATOM     59  O5  SGN d 505     -17.652  53.025 172.871  0.00  0.00    -0.327 OA
BRANCH  54  60
ATOM     60  N   SGN d 505     -16.331  54.424 175.999  0.00  0.00    -0.162 NA
BRANCH  60  61
ATOM     61  S1  SGN d 505     -16.004  56.057 176.186  0.00  0.00     0.227 S 
ATOM     62  O3S SGN d 505     -17.109  56.624 176.874  0.00  0.00    -0.577 OA
ATOM     63  O1S SGN d 505     -14.761  56.174 176.918  0.00  0.00    -0.577 OA
ATOM     64  O2S SGN d 505     -15.902  56.572 174.840  0.00  0.00    -0.577 OA
ENDBRANCH  60  61
ENDBRANCH  54  60
BRANCH  56  65
ATOM     65  O4  SGN d 505     -20.642  52.212 174.623  0.00  0.00    -0.326 OA
BRANCH  65  66
ATOM     66  C1  IDS d 506     -21.929  52.723 174.696  0.00  0.00     0.269 C 
ATOM     67  C2  IDS d 506     -22.828  51.704 175.412  0.00  0.00     0.226 C 
ATOM     68  C3  IDS d 506     -24.344  52.006 175.259  0.00  0.00     0.219 C 
ATOM     69  O3  IDS d 506     -24.715  52.970 176.241  0.00  0.00    -0.218 OA
ATOM     70  C4  IDS d 506     -24.731  52.549 173.867  0.00  0.00     0.223 C 
ATOM     71  O4  IDS d 506     -24.850  51.442 173.004  0.00  0.00    -0.217 OA
ATOM     72  C5  IDS d 506     -23.655  53.504 173.338  0.00  0.00     0.237 C 
ATOM     73  O5  IDS d 506     -22.409  52.891 173.386  0.00  0.00    -0.318 OA
BRANCH  67  74
ATOM     74  O2  IDS d 506     -22.613  50.410 174.885  0.00  0.00    -0.233 OA
BRANCH  74  75
ATOM     75  S   IDS d 506     -22.395  49.048 175.674  0.00  0.00     0.252 S 
ATOM     76  O1S IDS d 506     -21.103  49.170 176.276  0.00  0.00    -0.572 OA
ATOM     77  O2S IDS d 506     -23.421  48.942 176.672  0.00  0.00    -0.572 OA
ATOM     78  O3S IDS d 506     -22.461  48.005 174.673  0.00  0.00    -0.572 OA
ENDBRANCH  74  75
ENDBRANCH  67  74
BRANCH  72  79
ATOM     79  C6  IDS d 506     -23.880  54.080 171.953  0.00  0.00     0.217 C 
ATOM     80  O61 IDS d 506     -24.831  54.821 171.746  0.00  0.00    -0.646 OA
ATOM     81  O62 IDS d 506     -23.145  53.817 171.016  0.00  0.00    -0.646 OA
ENDBRANCH  72  79
ENDBRANCH  65  66
ENDBRANCH  56  65
BRANCH  58  82
ATOM     82  C6  SGN d 505     -19.531  51.906 172.120  0.00  0.00     0.198 C 
BRANCH  82  83
ATOM     83  O6  SGN d 505     -19.165  50.608 171.797  0.00  0.00    -0.235 OA
BRANCH  83  84
ATOM     84  S2  SGN d 505     -19.956  49.335 172.064  0.00  0.00     0.252 S 
ATOM     85  O6S SGN d 505     -21.366  49.693 172.004  0.00  0.00    -0.572 OA
ATOM     86  O4S SGN d 505     -19.564  48.431 171.006  0.00  0.00    -0.572 OA
ATOM     87  O5S SGN d 505     -19.546  48.924 173.384  0.00  0.00    -0.572 OA
ENDBRANCH  83  84
ENDBRANCH  82  83
ENDBRANCH  58  82
ENDBRANCH  52  53
ENDBRANCH   7  52
TORSDOF 27

ENDMDL
MODEL 35
REMARK VINA RESULT:       4.4      3.402     10.061
REMARK  27 active torsions:
REMARK  status: ('A' for Active; 'I' for Inactive)
REMARK    1  A    between atoms: C2_1  and  O2_78 
REMARK    2  A    between atoms: C1_3  and  O4_50 
REMARK    3  A    between atoms: O4_5  and  C4_58 
REMARK    4  A    between atoms: O4_5  and  C1_27 
REMARK    5  A    between atoms: C2_6  and  N_39 
REMARK    6  A    between atoms: S1_9  and  N_39 
REMARK    7  A    between atoms: C6_10  and  C5_52 
REMARK    8  A    between atoms: C2_12  and  N_73 
REMARK    9  A    between atoms: C2_19  and  O2_24 
REMARK   10  A    between atoms: C2_21  and  O2_44 
REMARK   11  A    between atoms: S2_23  and  O6_65 
REMARK   12  A    between atoms: O2_24  and  S_54 
REMARK   13  A    between atoms: C1_28  and  O4_60 
REMARK   14  A    between atoms: C5_29  and  C6_38 
REMARK   15  A    between atoms: C5_30  and  C6_33 
REMARK   16  A    between atoms: S1_34  and  N_73 
REMARK   17  A    between atoms: C5_41  and  C6_46 
REMARK   18  A    between atoms: S_43  and  O2_44 
REMARK   19  A    between atoms: C6_46  and  O6_72 
REMARK   20  A    between atoms: O4_50  and  C4_71 
REMARK   21  A    between atoms: C1_56  and  O4_64 
REMARK   22  A    between atoms: O4_60  and  C4_83 
REMARK   23  A    between atoms: C4_61  and  O4_64 
REMARK   24  A    between atoms: S2_63  and  O6_72 
REMARK   25  A    between atoms: O6_65  and  C6_67 
REMARK   26  A    between atoms: C6_67  and  C5_75 
REMARK   27  A    between atoms: S_76  and  O2_78 
ROOT
ATOM      1  C2  IDS d 504     -12.679  45.835 172.376  0.00  0.00     0.226 C 
ATOM      2  O3  IDS d 504     -12.920  45.404 174.778  0.00  0.00    -0.218 OA
ATOM      3  O5  IDS d 504     -10.993  47.552 172.754  0.00  0.00    -0.318 OA
ATOM      4  C5  IDS d 504     -11.441  47.813 174.064  0.00  0.00     0.234 C 
ATOM      5  C1  IDS d 504     -11.212  46.207 172.313  0.00  0.00     0.269 C 
ATOM      6  C3  IDS d 504     -13.353  46.267 173.735  0.00  0.00     0.216 C 
ATOM      7  C4  IDS d 504     -12.962  47.682 174.133  0.00  0.00     0.189 C 
ENDROOT
BRANCH   5   8
ATOM      8  O4  SGN d 503     -10.488  45.274 173.062  0.00  0.00    -0.326 OA
BRANCH   8   9
ATOM      9  C4  SGN d 503      -9.243  44.963 172.529  0.00  0.00     0.180 C 
ATOM     10  C3  SGN d 503      -9.329  45.058 171.008  0.00  0.00     0.210 C 
ATOM     11  C2  SGN d 503      -7.927  44.937 170.441  0.00  0.00     0.207 C 
ATOM     12  O3  SGN d 503     -10.130  43.988 170.545  0.00  0.00    -0.218 OA
ATOM     13  C1  SGN d 503      -6.966  45.947 171.084  0.00  0.00     0.263 C 
ATOM     14  O5  SGN d 503      -6.963  45.770 172.479  0.00  0.00    -0.327 OA
ATOM     15  C5  SGN d 503      -8.211  45.971 173.065  0.00  0.00     0.179 C 
BRANCH  11  16
ATOM     16  N   SGN d 503      -7.925  45.083 168.996  0.00  0.00    -0.162 NA
BRANCH  16  17
ATOM     17  S1  SGN d 503      -6.946  44.105 168.140  0.00  0.00     0.227 S 
ATOM     18  O1S SGN d 503      -7.122  44.472 166.748  0.00  0.00    -0.577 OA
ATOM     19  O2S SGN d 503      -5.573  44.322 168.596  0.00  0.00    -0.577 OA
ATOM     20  O3S SGN d 503      -7.457  42.785 168.434  0.00  0.00    -0.577 OA
ENDBRANCH  16  17
ENDBRANCH  11  16
BRANCH  13  21
ATOM     21  O4  IDS d 502      -7.313  47.260 170.735  0.00  0.00    -0.326 OA
BRANCH  21  22
ATOM     22  C4  IDS d 502      -6.299  47.983 170.086  0.00  0.00     0.189 C 
ATOM     23  C3  IDS d 502      -6.848  48.580 168.776  0.00  0.00     0.216 C 
ATOM     24  O3  IDS d 502      -5.775  49.131 168.038  0.00  0.00    -0.218 OA
ATOM     25  C2  IDS d 502      -7.852  49.701 169.063  0.00  0.00     0.229 C 
ATOM     26  C1  IDS d 502      -7.316  50.696 170.088  0.00  0.00     0.301 C 
ATOM     27  O1  IDS d 502      -6.328  51.471 169.462  0.00  0.00    -0.187 OA
ATOM     28  O5  IDS d 502      -6.841  50.040 171.237  0.00  0.00    -0.316 OA
ATOM     29  C5  IDS d 502      -5.809  49.103 171.001  0.00  0.00     0.234 C 
BRANCH  25  30
ATOM     30  O2  IDS d 502      -9.002  49.103 169.597  0.00  0.00    -0.232 OA
BRANCH  30  31
ATOM     31  S   IDS d 502     -10.277  48.622 168.828  0.00  0.00     0.252 S 
ATOM     32  O3S IDS d 502     -10.012  48.934 167.448  0.00  0.00    -0.572 OA
ATOM     33  O2S IDS d 502     -11.381  49.365 169.391  0.00  0.00    -0.572 OA
ATOM     34  O1S IDS d 502     -10.401  47.209 169.050  0.00  0.00    -0.572 OA
ENDBRANCH  30  31
ENDBRANCH  25  30
BRANCH  29  35
ATOM     35  C6  IDS d 502      -5.210  48.619 172.314  0.00  0.00     0.216 C 
ATOM     36  O61 IDS d 502      -4.163  48.019 172.342  0.00  0.00    -0.646 OA
ATOM     37  O62 IDS d 502      -5.770  48.830 173.373  0.00  0.00    -0.646 OA
ENDBRANCH  29  35
ENDBRANCH  21  22
ENDBRANCH  13  21
BRANCH  15  38
ATOM     38  C6  SGN d 503      -7.955  45.872 174.545  0.00  0.00     0.198 C 
BRANCH  38  39
ATOM     39  O6  SGN d 503      -7.566  44.544 174.821  0.00  0.00    -0.235 OA
BRANCH  39  40
ATOM     40  S2  SGN d 503      -8.106  43.668 175.982  0.00  0.00     0.252 S 
ATOM     41  O4S SGN d 503      -7.280  43.878 177.122  0.00  0.00    -0.572 OA
ATOM     42  O5S SGN d 503      -9.485  44.081 176.225  0.00  0.00    -0.572 OA
ATOM     43  O6S SGN d 503      -7.952  42.348 175.508  0.00  0.00    -0.572 OA
ENDBRANCH  39  40
ENDBRANCH  38  39
ENDBRANCH  15  38
ENDBRANCH   8   9
ENDBRANCH   5   8
BRANCH   1  44
ATOM     44  O2  IDS d 504     -13.344  46.446 171.272  0.00  0.00    -0.233 OA
BRANCH  44  45
ATOM     45  S   IDS d 504     -13.863  45.741 170.006  0.00  0.00     0.252 S 
ATOM     46  O3S IDS d 504     -13.091  44.557 169.943  0.00  0.00    -0.572 OA
ATOM     47  O2S IDS d 504     -13.680  46.639 168.904  0.00  0.00    -0.572 OA
ATOM     48  O1S IDS d 504     -15.235  45.467 170.234  0.00  0.00    -0.572 OA
ENDBRANCH  44  45
ENDBRANCH   1  44
BRANCH   4  49
ATOM     49  C6  IDS d 504     -10.878  49.152 174.568  0.00  0.00     0.216 C 
ATOM     50  O62 IDS d 504     -10.751  50.115 173.809  0.00  0.00    -0.646 OA
ATOM     51  O61 IDS d 504     -10.526  49.289 175.733  0.00  0.00    -0.646 OA
ENDBRANCH   4  49
BRANCH   7  52
ATOM     52  O4  IDS d 504     -13.572  48.606 173.244  0.00  0.00    -0.326 OA
BRANCH  52  53
ATOM     53  C1  SGN d 505     -14.847  49.025 173.650  0.00  0.00     0.263 C 
ATOM     54  C2  SGN d 505     -15.591  49.716 172.524  0.00  0.00     0.207 C 
ATOM     55  C3  SGN d 505     -14.905  51.045 172.150  0.00  0.00     0.210 C 
ATOM     56  C4  SGN d 505     -14.872  51.884 173.461  0.00  0.00     0.180 C 
ATOM     57  O3  SGN d 505     -15.692  51.696 171.161  0.00  0.00    -0.218 OA
ATOM     58  C5  SGN d 505     -14.093  51.088 174.457  0.00  0.00     0.179 C 
ATOM     59  O5  SGN d 505     -14.750  49.892 174.745  0.00  0.00    -0.327 OA
BRANCH  54  60
ATOM     60  N   SGN d 505     -15.780  48.764 171.405  0.00  0.00    -0.162 NA
BRANCH  60  61
ATOM     61  S1  SGN d 505     -17.339  48.233 171.095  0.00  0.00     0.227 S 
ATOM     62  O3S SGN d 505     -18.213  49.303 171.420  0.00  0.00    -0.577 OA
ATOM     63  O1S SGN d 505     -17.403  47.853 169.700  0.00  0.00    -0.577 OA
ATOM     64  O2S SGN d 505     -17.532  47.109 171.982  0.00  0.00    -0.577 OA
ENDBRANCH  60  61
ENDBRANCH  54  60
BRANCH  56  65
ATOM     65  O4  SGN d 505     -14.218  53.132 173.369  0.00  0.00    -0.326 OA
BRANCH  65  66
ATOM     66  C1  IDS d 506     -14.881  54.349 173.400  0.00  0.00     0.269 C 
ATOM     67  C2  IDS d 506     -14.107  55.359 172.540  0.00  0.00     0.226 C 
ATOM     68  C3  IDS d 506     -14.555  56.830 172.765  0.00  0.00     0.219 C 
ATOM     69  O3  IDS d 506     -15.706  57.080 171.962  0.00  0.00    -0.218 OA
ATOM     70  C4  IDS d 506     -14.902  57.155 174.234  0.00  0.00     0.223 C 
ATOM     71  O4  IDS d 506     -13.689  57.408 174.903  0.00  0.00    -0.217 OA
ATOM     72  C5  IDS d 506     -15.623  55.976 174.896  0.00  0.00     0.237 C 
ATOM     73  O5  IDS d 506     -14.885  54.811 174.728  0.00  0.00    -0.318 OA
BRANCH  67  74
ATOM     74  O2  IDS d 506     -12.727  55.300 172.844  0.00  0.00    -0.233 OA
BRANCH  74  75
ATOM     75  S   IDS d 506     -11.520  55.986 172.071  0.00  0.00     0.252 S 
ATOM     76  O1S IDS d 506     -11.475  57.327 172.567  0.00  0.00    -0.572 OA
ATOM     77  O2S IDS d 506     -10.318  55.274 172.401  0.00  0.00    -0.572 OA
ATOM     78  O3S IDS d 506     -11.864  55.908 170.668  0.00  0.00    -0.572 OA
ENDBRANCH  74  75
ENDBRANCH  67  74
BRANCH  72  79
ATOM     79  C6  IDS d 506     -15.983  56.137 176.361  0.00  0.00     0.217 C 
ATOM     80  O61 IDS d 506     -15.196  55.783 177.227  0.00  0.00    -0.646 OA
ATOM     81  O62 IDS d 506     -17.054  56.600 176.716  0.00  0.00    -0.646 OA
ENDBRANCH  72  79
ENDBRANCH  65  66
ENDBRANCH  56  65
BRANCH  58  82
ATOM     82  C6  SGN d 505     -13.925  51.798 175.762  0.00  0.00     0.198 C 
BRANCH  82  83
ATOM     83  O6  SGN d 505     -15.069  51.502 176.486  0.00  0.00    -0.235 OA
BRANCH  83  84
ATOM     84  S2  SGN d 505     -15.198  51.384 177.998  0.00  0.00     0.252 S 
ATOM     85  O6S SGN d 505     -16.512  51.902 178.353  0.00  0.00    -0.572 OA
ATOM     86  O4S SGN d 505     -15.064  49.970 178.269  0.00  0.00    -0.572 OA
ATOM     87  O5S SGN d 505     -14.126  52.196 178.517  0.00  0.00    -0.572 OA
ENDBRANCH  83  84
ENDBRANCH  82  83
ENDBRANCH  58  82
ENDBRANCH  52  53
ENDBRANCH   7  52
TORSDOF 27

ENDMDL
MODEL 36
REMARK VINA RESULT:       4.4      3.339      7.946
REMARK  27 active torsions:
REMARK  status: ('A' for Active; 'I' for Inactive)
REMARK    1  A    between atoms: C2_1  and  O2_78 
REMARK    2  A    between atoms: C1_3  and  O4_50 
REMARK    3  A    between atoms: O4_5  and  C4_58 
REMARK    4  A    between atoms: O4_5  and  C1_27 
REMARK    5  A    between atoms: C2_6  and  N_39 
REMARK    6  A    between atoms: S1_9  and  N_39 
REMARK    7  A    between atoms: C6_10  and  C5_52 
REMARK    8  A    between atoms: C2_12  and  N_73 
REMARK    9  A    between atoms: C2_19  and  O2_24 
REMARK   10  A    between atoms: C2_21  and  O2_44 
REMARK   11  A    between atoms: S2_23  and  O6_65 
REMARK   12  A    between atoms: O2_24  and  S_54 
REMARK   13  A    between atoms: C1_28  and  O4_60 
REMARK   14  A    between atoms: C5_29  and  C6_38 
REMARK   15  A    between atoms: C5_30  and  C6_33 
REMARK   16  A    between atoms: S1_34  and  N_73 
REMARK   17  A    between atoms: C5_41  and  C6_46 
REMARK   18  A    between atoms: S_43  and  O2_44 
REMARK   19  A    between atoms: C6_46  and  O6_72 
REMARK   20  A    between atoms: O4_50  and  C4_71 
REMARK   21  A    between atoms: C1_56  and  O4_64 
REMARK   22  A    between atoms: O4_60  and  C4_83 
REMARK   23  A    between atoms: C4_61  and  O4_64 
REMARK   24  A    between atoms: S2_63  and  O6_72 
REMARK   25  A    between atoms: O6_65  and  C6_67 
REMARK   26  A    between atoms: C6_67  and  C5_75 
REMARK   27  A    between atoms: S_76  and  O2_78 
ROOT
ATOM      1  C2  IDS d 504     -19.219  44.811 173.960  0.00  0.00     0.226 C 
ATOM      2  O3  IDS d 504     -19.166  43.595 171.831  0.00  0.00    -0.218 OA
ATOM      3  O5  IDS d 504     -19.272  46.972 172.836  0.00  0.00    -0.318 OA
ATOM      4  C5  IDS d 504     -18.675  46.463 171.664  0.00  0.00     0.234 C 
ATOM      5  C1  IDS d 504     -20.049  46.015 173.564  0.00  0.00     0.269 C 
ATOM      6  C3  IDS d 504     -18.337  44.269 172.770  0.00  0.00     0.216 C 
ATOM      7  C4  IDS d 504     -17.642  45.397 172.023  0.00  0.00     0.189 C 
ENDROOT
BRANCH   5   8
ATOM      8  O4  SGN d 503     -21.159  45.565 172.841  0.00  0.00    -0.326 OA
BRANCH   8   9
ATOM      9  C4  SGN d 503     -22.301  46.339 173.017  0.00  0.00     0.180 C 
ATOM     10  C3  SGN d 503     -22.343  46.817 174.466  0.00  0.00     0.210 C 
ATOM     11  C2  SGN d 503     -23.462  47.834 174.601  0.00  0.00     0.207 C 
ATOM     12  O3  SGN d 503     -22.608  45.698 175.291  0.00  0.00    -0.218 OA
ATOM     13  C1  SGN d 503     -23.329  48.962 173.567  0.00  0.00     0.263 C 
ATOM     14  O5  SGN d 503     -23.302  48.411 172.273  0.00  0.00    -0.327 OA
ATOM     15  C5  SGN d 503     -22.232  47.545 172.063  0.00  0.00     0.179 C 
BRANCH  11  16
ATOM     16  N   SGN d 503     -23.520  48.382 175.945  0.00  0.00    -0.162 NA
BRANCH  16  17
ATOM     17  S1  SGN d 503     -24.838  48.047 176.838  0.00  0.00     0.227 S 
ATOM     18  O1S SGN d 503     -25.628  47.112 176.059  0.00  0.00    -0.577 OA
ATOM     19  O2S SGN d 503     -24.395  47.467 178.106  0.00  0.00    -0.577 OA
ATOM     20  O3S SGN d 503     -25.481  49.334 176.977  0.00  0.00    -0.577 OA
ENDBRANCH  16  17
ENDBRANCH  11  16
BRANCH  13  21
ATOM     21  O4  IDS d 502     -22.191  49.740 173.816  0.00  0.00    -0.326 OA
BRANCH  21  22
ATOM     22  C4  IDS d 502     -22.442  51.110 173.995  0.00  0.00     0.189 C 
ATOM     23  C3  IDS d 502     -22.045  51.527 175.424  0.00  0.00     0.216 C 
ATOM     24  O3  IDS d 502     -22.487  52.850 175.656  0.00  0.00    -0.218 OA
ATOM     25  C2  IDS d 502     -20.524  51.496 175.601  0.00  0.00     0.229 C 
ATOM     26  C1  IDS d 502     -19.805  52.212 174.463  0.00  0.00     0.301 C 
ATOM     27  O1  IDS d 502     -19.995  53.592 174.632  0.00  0.00    -0.187 OA
ATOM     28  O5  IDS d 502     -20.248  51.755 173.210  0.00  0.00    -0.316 OA
ATOM     29  C5  IDS d 502     -21.633  51.912 172.977  0.00  0.00     0.234 C 
BRANCH  25  30
ATOM     30  O2  IDS d 502     -20.130  50.150 175.586  0.00  0.00    -0.232 OA
BRANCH  30  31
ATOM     31  S   IDS d 502     -18.748  49.552 176.010  0.00  0.00     0.252 S 
ATOM     32  O3S IDS d 502     -19.075  48.367 176.759  0.00  0.00    -0.572 OA
ATOM     33  O2S IDS d 502     -18.099  50.577 176.794  0.00  0.00    -0.572 OA
ATOM     34  O1S IDS d 502     -18.028  49.248 174.804  0.00  0.00    -0.572 OA
ENDBRANCH  30  31
ENDBRANCH  25  30
BRANCH  29  35
ATOM     35  C6  IDS d 502     -21.974  51.603 171.526  0.00  0.00     0.216 C 
ATOM     36  O61 IDS d 502     -23.118  51.585 171.141  0.00  0.00    -0.646 OA
ATOM     37  O62 IDS d 502     -21.100  51.371 170.713  0.00  0.00    -0.646 OA
ENDBRANCH  29  35
ENDBRANCH  21  22
ENDBRANCH  13  21
BRANCH  15  38
ATOM     38  C6  SGN d 503     -22.313  47.188 170.603  0.00  0.00     0.198 C 
BRANCH  38  39
ATOM     39  O6  SGN d 503     -21.938  48.331 169.865  0.00  0.00    -0.235 OA
BRANCH  39  40
ATOM     40  S2  SGN d 503     -22.279  48.596 168.375  0.00  0.00     0.252 S 
ATOM     41  O4S SGN d 503     -22.920  49.863 168.281  0.00  0.00    -0.572 OA
ATOM     42  O5S SGN d 503     -21.021  48.564 167.636  0.00  0.00    -0.572 OA
ATOM     43  O6S SGN d 503     -23.190  47.567 168.052  0.00  0.00    -0.572 OA
ENDBRANCH  39  40
ENDBRANCH  38  39
ENDBRANCH  15  38
ENDBRANCH   8   9
ENDBRANCH   5   8
BRANCH   1  44
ATOM     44  O2  IDS d 504     -18.394  45.179 175.064  0.00  0.00    -0.233 OA
BRANCH  44  45
ATOM     45  S   IDS d 504     -18.446  44.593 176.486  0.00  0.00     0.252 S 
ATOM     46  O3S IDS d 504     -18.458  43.194 176.271  0.00  0.00    -0.572 OA
ATOM     47  O2S IDS d 504     -19.617  45.114 177.128  0.00  0.00    -0.572 OA
ATOM     48  O1S IDS d 504     -17.261  45.018 177.138  0.00  0.00    -0.572 OA
ENDBRANCH  44  45
ENDBRANCH   1  44
BRANCH   4  49
ATOM     49  C6  IDS d 504     -18.149  47.612 170.787  0.00  0.00     0.216 C 
ATOM     50  O62 IDS d 504     -17.780  47.411 169.628  0.00  0.00    -0.646 OA
ATOM     51  O61 IDS d 504     -18.068  48.752 171.226  0.00  0.00    -0.646 OA
ENDBRANCH   4  49
BRANCH   7  52
ATOM     52  O4  IDS d 504     -16.632  45.954 172.851  0.00  0.00    -0.326 OA
BRANCH  52  53
ATOM     53  C1  SGN d 505     -15.328  45.625 172.453  0.00  0.00     0.263 C 
ATOM     54  C2  SGN d 505     -14.378  45.589 173.634  0.00  0.00     0.207 C 
ATOM     55  C3  SGN d 505     -14.198  46.998 174.233  0.00  0.00     0.210 C 
ATOM     56  C4  SGN d 505     -13.684  47.889 173.066  0.00  0.00     0.180 C 
ATOM     57  O3  SGN d 505     -13.229  46.926 175.271  0.00  0.00    -0.218 OA
ATOM     58  C5  SGN d 505     -14.729  47.841 171.999  0.00  0.00     0.179 C 
ATOM     59  O5  SGN d 505     -14.860  46.543 171.506  0.00  0.00    -0.327 OA
BRANCH  54  60
ATOM     60  N   SGN d 505     -14.821  44.546 174.587  0.00  0.00    -0.162 NA
BRANCH  60  61
ATOM     61  S1  SGN d 505     -13.698  43.390 175.046  0.00  0.00     0.227 S 
ATOM     62  O3S SGN d 505     -13.350  43.663 176.395  0.00  0.00    -0.577 OA
ATOM     63  O1S SGN d 505     -14.312  42.090 174.873  0.00  0.00    -0.577 OA
ATOM     64  O2S SGN d 505     -12.574  43.591 174.162  0.00  0.00    -0.577 OA
ENDBRANCH  60  61
ENDBRANCH  54  60
BRANCH  56  65
ATOM     65  O4  SGN d 505     -13.511  49.257 173.374  0.00  0.00    -0.326 OA
BRANCH  65  66
ATOM     66  C1  IDS d 506     -12.842  49.710 174.501  0.00  0.00     0.269 C 
ATOM     67  C2  IDS d 506     -13.436  51.063 174.921  0.00  0.00     0.226 C 
ATOM     68  C3  IDS d 506     -12.559  51.826 175.952  0.00  0.00     0.219 C 
ATOM     69  O3  IDS d 506     -12.858  51.330 177.255  0.00  0.00    -0.218 OA
ATOM     70  C4  IDS d 506     -11.042  51.679 175.707  0.00  0.00     0.223 C 
ATOM     71  O4  IDS d 506     -10.689  52.601 174.703  0.00  0.00    -0.217 OA
ATOM     72  C5  IDS d 506     -10.702  50.257 175.246  0.00  0.00     0.237 C 
ATOM     73  O5  IDS d 506     -11.493  49.906 174.159  0.00  0.00    -0.318 OA
BRANCH  67  74
ATOM     74  O2  IDS d 506     -13.570  51.906 173.794  0.00  0.00    -0.233 OA
BRANCH  74  75
ATOM     75  S   IDS d 506     -14.894  52.559 173.205  0.00  0.00     0.252 S 
ATOM     76  O1S IDS d 506     -14.661  53.970 173.245  0.00  0.00    -0.572 OA
ATOM     77  O2S IDS d 506     -15.055  52.101 171.855  0.00  0.00    -0.572 OA
ATOM     78  O3S IDS d 506     -15.960  52.132 174.085  0.00  0.00    -0.572 OA
ENDBRANCH  74  75
ENDBRANCH  67  74
BRANCH  72  79
ATOM     79  C6  IDS d 506      -9.247  49.979 174.920  0.00  0.00     0.217 C 
ATOM     80  O61 IDS d 506      -8.408  49.987 175.811  0.00  0.00    -0.646 OA
ATOM     81  O62 IDS d 506      -8.870  49.760 173.782  0.00  0.00    -0.646 OA
ENDBRANCH  72  79
ENDBRANCH  65  66
ENDBRANCH  56  65
BRANCH  58  82
ATOM     82  C6  SGN d 505     -14.399  48.704 170.825  0.00  0.00     0.198 C 
BRANCH  82  83
ATOM     83  O6  SGN d 505     -13.527  47.951 170.054  0.00  0.00    -0.235 OA
BRANCH  83  84
ATOM     84  S2  SGN d 505     -13.624  47.669 168.562  0.00  0.00     0.252 S 
ATOM     85  O6S SGN d 505     -12.385  48.144 167.960  0.00  0.00    -0.572 OA
ATOM     86  O4S SGN d 505     -13.776  46.235 168.468  0.00  0.00    -0.572 OA
ATOM     87  O5S SGN d 505     -14.773  48.422 168.125  0.00  0.00    -0.572 OA
ENDBRANCH  83  84
ENDBRANCH  82  83
ENDBRANCH  58  82
ENDBRANCH  52  53
ENDBRANCH   7  52
TORSDOF 27

ENDMDL
MODEL 37
REMARK VINA RESULT:       4.4      3.534     10.156
REMARK  27 active torsions:
REMARK  status: ('A' for Active; 'I' for Inactive)
REMARK    1  A    between atoms: C2_1  and  O2_78 
REMARK    2  A    between atoms: C1_3  and  O4_50 
REMARK    3  A    between atoms: O4_5  and  C4_58 
REMARK    4  A    between atoms: O4_5  and  C1_27 
REMARK    5  A    between atoms: C2_6  and  N_39 
REMARK    6  A    between atoms: S1_9  and  N_39 
REMARK    7  A    between atoms: C6_10  and  C5_52 
REMARK    8  A    between atoms: C2_12  and  N_73 
REMARK    9  A    between atoms: C2_19  and  O2_24 
REMARK   10  A    between atoms: C2_21  and  O2_44 
REMARK   11  A    between atoms: S2_23  and  O6_65 
REMARK   12  A    between atoms: O2_24  and  S_54 
REMARK   13  A    between atoms: C1_28  and  O4_60 
REMARK   14  A    between atoms: C5_29  and  C6_38 
REMARK   15  A    between atoms: C5_30  and  C6_33 
REMARK   16  A    between atoms: S1_34  and  N_73 
REMARK   17  A    between atoms: C5_41  and  C6_46 
REMARK   18  A    between atoms: S_43  and  O2_44 
REMARK   19  A    between atoms: C6_46  and  O6_72 
REMARK   20  A    between atoms: O4_50  and  C4_71 
REMARK   21  A    between atoms: C1_56  and  O4_64 
REMARK   22  A    between atoms: O4_60  and  C4_83 
REMARK   23  A    between atoms: C4_61  and  O4_64 
REMARK   24  A    between atoms: S2_63  and  O6_72 
REMARK   25  A    between atoms: O6_65  and  C6_67 
REMARK   26  A    between atoms: C6_67  and  C5_75 
REMARK   27  A    between atoms: S_76  and  O2_78 
ROOT
ATOM      1  C2  IDS d 504     -19.715  46.612 172.597  0.00  0.00     0.226 C 
ATOM      2  O3  IDS d 504     -21.104  45.336 174.165  0.00  0.00    -0.218 OA
ATOM      3  O5  IDS d 504     -18.041  47.075 174.306  0.00  0.00    -0.318 OA
ATOM      4  C5  IDS d 504     -18.961  46.909 175.361  0.00  0.00     0.234 C 
ATOM      5  C1  IDS d 504     -18.335  46.298 173.140  0.00  0.00     0.269 C 
ATOM      6  C3  IDS d 504     -20.812  46.658 173.729  0.00  0.00     0.216 C 
ATOM      7  C4  IDS d 504     -20.334  47.435 174.946  0.00  0.00     0.189 C 
ENDROOT
BRANCH   5   8
ATOM      8  O4  SGN d 503     -18.260  44.923 173.381  0.00  0.00    -0.326 OA
BRANCH   8   9
ATOM      9  C4  SGN d 503     -16.981  44.394 173.249  0.00  0.00     0.180 C 
ATOM     10  C3  SGN d 503     -16.157  45.332 172.369  0.00  0.00     0.210 C 
ATOM     11  C2  SGN d 503     -14.711  44.874 172.406  0.00  0.00     0.207 C 
ATOM     12  O3  SGN d 503     -16.656  45.248 171.048  0.00  0.00    -0.218 OA
ATOM     13  C1  SGN d 503     -14.195  44.742 173.846  0.00  0.00     0.263 C 
ATOM     14  O5  SGN d 503     -15.021  43.857 174.561  0.00  0.00    -0.327 OA
ATOM     15  C5  SGN d 503     -16.345  44.283 174.646  0.00  0.00     0.179 C 
BRANCH  11  16
ATOM     16  N   SGN d 503     -13.855  45.762 171.639  0.00  0.00    -0.162 NA
BRANCH  16  17
ATOM     17  S1  SGN d 503     -13.095  45.141 170.341  0.00  0.00     0.227 S 
ATOM     18  O1S SGN d 503     -13.411  43.725 170.326  0.00  0.00    -0.577 OA
ATOM     19  O2S SGN d 503     -13.593  45.827 169.149  0.00  0.00    -0.577 OA
ATOM     20  O3S SGN d 503     -11.700  45.394 170.621  0.00  0.00    -0.577 OA
ENDBRANCH  16  17
ENDBRANCH  11  16
BRANCH  13  21
ATOM     21  O4  IDS d 502     -14.124  45.995 174.470  0.00  0.00    -0.326 OA
BRANCH  21  22
ATOM     22  C4  IDS d 502     -12.865  46.316 175.003  0.00  0.00     0.189 C 
ATOM     23  C3  IDS d 502     -12.237  47.464 174.189  0.00  0.00     0.216 C 
ATOM     24  O3  IDS d 502     -10.896  47.641 174.604  0.00  0.00    -0.218 OA
ATOM     25  C2  IDS d 502     -12.985  48.778 174.429  0.00  0.00     0.229 C 
ATOM     26  C1  IDS d 502     -13.208  49.044 175.914  0.00  0.00     0.301 C 
ATOM     27  O1  IDS d 502     -11.976  49.413 176.476  0.00  0.00    -0.187 OA
ATOM     28  O5  IDS d 502     -13.781  47.930 176.553  0.00  0.00    -0.316 OA
ATOM     29  C5  IDS d 502     -13.023  46.740 176.461  0.00  0.00     0.234 C 
BRANCH  25  30
ATOM     30  O2  IDS d 502     -14.241  48.660 173.815  0.00  0.00    -0.232 OA
BRANCH  30  31
ATOM     31  S   IDS d 502     -14.741  49.367 172.513  0.00  0.00     0.252 S 
ATOM     32  O3S IDS d 502     -14.662  50.775 172.806  0.00  0.00    -0.572 OA
ATOM     33  O2S IDS d 502     -16.088  48.892 172.298  0.00  0.00    -0.572 OA
ATOM     34  O1S IDS d 502     -13.851  48.985 171.452  0.00  0.00    -0.572 OA
ENDBRANCH  30  31
ENDBRANCH  25  30
BRANCH  29  35
ATOM     35  C6  IDS d 502     -13.604  45.662 177.365  0.00  0.00     0.216 C 
ATOM     36  O61 IDS d 502     -12.909  44.788 177.824  0.00  0.00    -0.646 OA
ATOM     37  O62 IDS d 502     -14.785  45.655 177.653  0.00  0.00    -0.646 OA
ENDBRANCH  29  35
ENDBRANCH  21  22
ENDBRANCH  13  21
BRANCH  15  38
ATOM     38  C6  SGN d 503     -17.009  43.283 175.553  0.00  0.00     0.198 C 
BRANCH  38  39
ATOM     39  O6  SGN d 503     -17.805  44.003 176.469  0.00  0.00    -0.235 OA
BRANCH  39  40
ATOM     40  S2  SGN d 503     -18.943  43.406 177.339  0.00  0.00     0.252 S 
ATOM     41  O4S SGN d 503     -19.554  42.347 176.611  0.00  0.00    -0.572 OA
ATOM     42  O5S SGN d 503     -18.331  42.935 178.578  0.00  0.00    -0.572 OA
ATOM     43  O6S SGN d 503     -19.848  44.478 177.489  0.00  0.00    -0.572 OA
ENDBRANCH  39  40
ENDBRANCH  38  39
ENDBRANCH  15  38
ENDBRANCH   8   9
ENDBRANCH   5   8
BRANCH   1  44
ATOM     44  O2  IDS d 504     -19.653  47.861 171.911  0.00  0.00    -0.233 OA
BRANCH  44  45
ATOM     45  S   IDS d 504     -20.183  48.161 170.497  0.00  0.00     0.252 S 
ATOM     46  O3S IDS d 504     -19.093  47.834 169.656  0.00  0.00    -0.572 OA
ATOM     47  O2S IDS d 504     -20.578  49.539 170.465  0.00  0.00    -0.572 OA
ATOM     48  O1S IDS d 504     -21.287  47.297 170.292  0.00  0.00    -0.572 OA
ENDBRANCH  44  45
ENDBRANCH   1  44
BRANCH   4  49
ATOM     49  C6  IDS d 504     -18.399  47.507 176.662  0.00  0.00     0.216 C 
ATOM     50  O62 IDS d 504     -17.210  47.818 176.759  0.00  0.00    -0.646 OA
ATOM     51  O61 IDS d 504     -19.116  47.670 177.641  0.00  0.00    -0.646 OA
ENDBRANCH   4  49
BRANCH   7  52
ATOM     52  O4  IDS d 504     -20.251  48.814 174.620  0.00  0.00    -0.326 OA
BRANCH  52  53
ATOM     53  C1  SGN d 505     -21.153  49.620 175.330  0.00  0.00     0.263 C 
ATOM     54  C2  SGN d 505     -21.862  50.601 174.417  0.00  0.00     0.207 C 
ATOM     55  C3  SGN d 505     -20.869  51.633 173.848  0.00  0.00     0.210 C 
ATOM     56  C4  SGN d 505     -20.217  52.316 175.085  0.00  0.00     0.180 C 
ATOM     57  O3  SGN d 505     -21.596  52.582 173.079  0.00  0.00    -0.218 OA
ATOM     58  C5  SGN d 505     -19.546  51.234 175.867  0.00  0.00     0.179 C 
ATOM     59  O5  SGN d 505     -20.488  50.322 176.342  0.00  0.00    -0.327 OA
BRANCH  54  60
ATOM     60  N   SGN d 505     -22.645  49.851 173.407  0.00  0.00    -0.162 NA
BRANCH  60  61
ATOM     61  S1  SGN d 505     -24.180  49.338 173.844  0.00  0.00     0.227 S 
ATOM     62  O3S SGN d 505     -24.068  47.974 174.221  0.00  0.00    -0.577 OA
ATOM     63  O1S SGN d 505     -24.635  50.188 174.924  0.00  0.00    -0.577 OA
ATOM     64  O2S SGN d 505     -24.977  49.490 172.649  0.00  0.00    -0.577 OA
ENDBRANCH  60  61
ENDBRANCH  54  60
BRANCH  56  65
ATOM     65  O4  SGN d 505     -19.211  53.264 174.798  0.00  0.00    -0.326 OA
BRANCH  65  66
ATOM     66  C1  IDS d 506     -19.474  54.588 174.480  0.00  0.00     0.269 C 
ATOM     67  C2  IDS d 506     -18.147  55.299 174.177  0.00  0.00     0.226 C 
ATOM     68  C3  IDS d 506     -18.272  56.848 174.141  0.00  0.00     0.219 C 
ATOM     69  O3  IDS d 506     -18.733  57.234 172.849  0.00  0.00    -0.218 OA
ATOM     70  C4  IDS d 506     -19.242  57.417 175.198  0.00  0.00     0.223 C 
ATOM     71  O4  IDS d 506     -18.537  57.489 176.416  0.00  0.00    -0.217 OA
ATOM     72  C5  IDS d 506     -20.464  56.506 175.360  0.00  0.00     0.237 C 
ATOM     73  O5  IDS d 506     -20.057  55.200 175.603  0.00  0.00    -0.318 OA
BRANCH  67  74
ATOM     74  O2  IDS d 506     -17.191  54.989 175.172  0.00  0.00    -0.233 OA
BRANCH  74  75
ATOM     75  S   IDS d 506     -15.675  55.458 175.261  0.00  0.00     0.252 S 
ATOM     76  O1S IDS d 506     -15.539  56.031 176.565  0.00  0.00    -0.572 OA
ATOM     77  O2S IDS d 506     -14.840  54.300 175.116  0.00  0.00    -0.572 OA
ATOM     78  O3S IDS d 506     -15.505  56.422 174.195  0.00  0.00    -0.572 OA
ENDBRANCH  74  75
ENDBRANCH  67  74
BRANCH  72  79
ATOM     79  C6  IDS d 506     -21.483  56.918 176.406  0.00  0.00     0.217 C 
ATOM     80  O61 IDS d 506     -21.465  56.403 177.515  0.00  0.00    -0.646 OA
ATOM     81  O62 IDS d 506     -22.347  57.747 176.175  0.00  0.00    -0.646 OA
ENDBRANCH  72  79
ENDBRANCH  65  66
ENDBRANCH  56  65
BRANCH  58  82
ATOM     82  C6  SGN d 505     -18.820  51.750 177.066  0.00  0.00     0.198 C 
BRANCH  82  83
ATOM     83  O6  SGN d 505     -17.658  50.998 177.139  0.00  0.00    -0.235 OA
BRANCH  83  84
ATOM     84  S2  SGN d 505     -16.230  51.515 177.239  0.00  0.00     0.252 S 
ATOM     85  O6S SGN d 505     -16.311  52.897 177.693  0.00  0.00    -0.572 OA
ATOM     86  O4S SGN d 505     -15.591  50.647 178.203  0.00  0.00    -0.572 OA
ATOM     87  O5S SGN d 505     -15.711  51.404 175.899  0.00  0.00    -0.572 OA
ENDBRANCH  83  84
ENDBRANCH  82  83
ENDBRANCH  58  82
ENDBRANCH  52  53
ENDBRANCH   7  52
TORSDOF 27

ENDMDL
MODEL 38
REMARK VINA RESULT:       4.5      4.186      9.625
REMARK  27 active torsions:
REMARK  status: ('A' for Active; 'I' for Inactive)
REMARK    1  A    between atoms: C2_1  and  O2_78 
REMARK    2  A    between atoms: C1_3  and  O4_50 
REMARK    3  A    between atoms: O4_5  and  C4_58 
REMARK    4  A    between atoms: O4_5  and  C1_27 
REMARK    5  A    between atoms: C2_6  and  N_39 
REMARK    6  A    between atoms: S1_9  and  N_39 
REMARK    7  A    between atoms: C6_10  and  C5_52 
REMARK    8  A    between atoms: C2_12  and  N_73 
REMARK    9  A    between atoms: C2_19  and  O2_24 
REMARK   10  A    between atoms: C2_21  and  O2_44 
REMARK   11  A    between atoms: S2_23  and  O6_65 
REMARK   12  A    between atoms: O2_24  and  S_54 
REMARK   13  A    between atoms: C1_28  and  O4_60 
REMARK   14  A    between atoms: C5_29  and  C6_38 
REMARK   15  A    between atoms: C5_30  and  C6_33 
REMARK   16  A    between atoms: S1_34  and  N_73 
REMARK   17  A    between atoms: C5_41  and  C6_46 
REMARK   18  A    between atoms: S_43  and  O2_44 
REMARK   19  A    between atoms: C6_46  and  O6_72 
REMARK   20  A    between atoms: O4_50  and  C4_71 
REMARK   21  A    between atoms: C1_56  and  O4_64 
REMARK   22  A    between atoms: O4_60  and  C4_83 
REMARK   23  A    between atoms: C4_61  and  O4_64 
REMARK   24  A    between atoms: S2_63  and  O6_72 
REMARK   25  A    between atoms: O6_65  and  C6_67 
REMARK   26  A    between atoms: C6_67  and  C5_75 
REMARK   27  A    between atoms: S_76  and  O2_78 
ROOT
ATOM      1  C2  IDS d 504     -21.850  49.917 173.948  0.00  0.00     0.226 C 
ATOM      2  O3  IDS d 504     -21.940  49.225 171.597  0.00  0.00    -0.218 OA
ATOM      3  O5  IDS d 504     -19.660  50.945 173.662  0.00  0.00    -0.318 OA
ATOM      4  C5  IDS d 504     -19.342  50.139 172.550  0.00  0.00     0.234 C 
ATOM      5  C1  IDS d 504     -21.058  51.203 173.822  0.00  0.00     0.269 C 
ATOM      6  C3  IDS d 504     -21.433  48.844 172.870  0.00  0.00     0.216 C 
ATOM      7  C4  IDS d 504     -19.921  48.739 172.735  0.00  0.00     0.189 C 
ENDROOT
BRANCH   5   8
ATOM      8  O4  SGN d 503     -21.591  51.944 172.762  0.00  0.00    -0.326 OA
BRANCH   8   9
ATOM      9  C4  SGN d 503     -21.505  53.321 172.935  0.00  0.00     0.180 C 
ATOM     10  C3  SGN d 503     -21.455  53.619 174.431  0.00  0.00     0.210 C 
ATOM     11  C2  SGN d 503     -21.141  55.093 174.615  0.00  0.00     0.207 C 
ATOM     12  O3  SGN d 503     -22.724  53.325 174.982  0.00  0.00    -0.218 OA
ATOM     13  C1  SGN d 503     -19.878  55.503 173.844  0.00  0.00     0.263 C 
ATOM     14  O5  SGN d 503     -20.034  55.187 172.483  0.00  0.00    -0.327 OA
ATOM     15  C5  SGN d 503     -20.223  53.826 172.250  0.00  0.00     0.179 C 
BRANCH  11  16
ATOM     16  N   SGN d 503     -21.014  55.436 176.020  0.00  0.00    -0.162 NA
BRANCH  16  17
ATOM     17  S1  SGN d 503     -21.509  56.916 176.482  0.00  0.00     0.227 S 
ATOM     18  O1S SGN d 503     -21.961  56.782 177.854  0.00  0.00    -0.577 OA
ATOM     19  O2S SGN d 503     -20.377  57.834 176.364  0.00  0.00    -0.577 OA
ATOM     20  O3S SGN d 503     -22.592  57.203 175.568  0.00  0.00    -0.577 OA
ENDBRANCH  16  17
ENDBRANCH  11  16
BRANCH  13  21
ATOM     21  O4  IDS d 502     -18.740  54.890 174.386  0.00  0.00    -0.326 OA
BRANCH  21  22
ATOM     22  C4  IDS d 502     -17.705  55.773 174.735  0.00  0.00     0.189 C 
ATOM     23  C3  IDS d 502     -17.493  55.743 176.261  0.00  0.00     0.216 C 
ATOM     24  O3  IDS d 502     -16.596  56.776 176.620  0.00  0.00    -0.218 OA
ATOM     25  C2  IDS d 502     -16.884  54.410 176.703  0.00  0.00     0.229 C 
ATOM     26  C1  IDS d 502     -15.684  54.020 175.846  0.00  0.00     0.301 C 
ATOM     27  O1  IDS d 502     -14.612  54.854 176.198  0.00  0.00    -0.187 OA
ATOM     28  O5  IDS d 502     -15.992  54.086 174.476  0.00  0.00    -0.316 OA
ATOM     29  C5  IDS d 502     -16.420  55.356 174.025  0.00  0.00     0.234 C 
BRANCH  25  30
ATOM     30  O2  IDS d 502     -17.871  53.427 176.543  0.00  0.00    -0.232 OA
BRANCH  30  31
ATOM     31  S   IDS d 502     -17.931  52.012 177.208  0.00  0.00     0.252 S 
ATOM     32  O3S IDS d 502     -17.452  51.109 176.194  0.00  0.00    -0.572 OA
ATOM     33  O2S IDS d 502     -19.314  51.804 177.568  0.00  0.00    -0.572 OA
ATOM     34  O1S IDS d 502     -17.067  52.044 178.355  0.00  0.00    -0.572 OA
ENDBRANCH  30  31
ENDBRANCH  25  30
BRANCH  29  35
ATOM     35  C6  IDS d 502     -16.508  55.386 172.505  0.00  0.00     0.216 C 
ATOM     36  O61 IDS d 502     -16.497  56.429 171.898  0.00  0.00    -0.646 OA
ATOM     37  O62 IDS d 502     -16.587  54.358 171.862  0.00  0.00    -0.646 OA
ENDBRANCH  29  35
ENDBRANCH  21  22
ENDBRANCH  13  21
BRANCH  15  38
ATOM     38  C6  SGN d 503     -20.226  53.695 170.751  0.00  0.00     0.198 C 
BRANCH  38  39
ATOM     39  O6  SGN d 503     -19.642  54.866 170.221  0.00  0.00    -0.235 OA
BRANCH  39  40
ATOM     40  S2  SGN d 503     -20.103  55.602 168.936  0.00  0.00     0.252 S 
ATOM     41  O4S SGN d 503     -20.986  56.653 169.315  0.00  0.00    -0.572 OA
ATOM     42  O5S SGN d 503     -18.902  56.110 168.279  0.00  0.00    -0.572 OA
ATOM     43  O6S SGN d 503     -20.806  54.614 168.216  0.00  0.00    -0.572 OA
ENDBRANCH  39  40
ENDBRANCH  38  39
ENDBRANCH  15  38
ENDBRANCH   8   9
ENDBRANCH   5   8
BRANCH   1  44
ATOM     44  O2  IDS d 504     -21.659  49.401 175.264  0.00  0.00    -0.233 OA
BRANCH  44  45
ATOM     45  S   IDS d 504     -22.754  48.890 176.219  0.00  0.00     0.252 S 
ATOM     46  O3S IDS d 504     -22.061  48.669 177.433  0.00  0.00    -0.572 OA
ATOM     47  O2S IDS d 504     -23.329  47.716 175.631  0.00  0.00    -0.572 OA
ATOM     48  O1S IDS d 504     -23.703  49.936 176.335  0.00  0.00    -0.572 OA
ENDBRANCH  44  45
ENDBRANCH   1  44
BRANCH   4  49
ATOM     49  C6  IDS d 504     -17.831  50.188 172.266  0.00  0.00     0.216 C 
ATOM     50  O62 IDS d 504     -17.085  50.927 172.911  0.00  0.00    -0.646 OA
ATOM     51  O61 IDS d 504     -17.335  49.507 171.377  0.00  0.00    -0.646 OA
ENDBRANCH   4  49
BRANCH   7  52
ATOM     52  O4  IDS d 504     -19.386  48.139 173.906  0.00  0.00    -0.326 OA
BRANCH  52  53
ATOM     53  C1  SGN d 505     -19.207  46.753 173.801  0.00  0.00     0.263 C 
ATOM     54  C2  SGN d 505     -19.037  46.108 175.163  0.00  0.00     0.207 C 
ATOM     55  C3  SGN d 505     -17.722  46.567 175.824  0.00  0.00     0.210 C 
ATOM     56  C4  SGN d 505     -16.593  46.182 174.825  0.00  0.00     0.180 C 
ATOM     57  O3  SGN d 505     -17.564  45.864 177.050  0.00  0.00    -0.218 OA
ATOM     58  C5  SGN d 505     -16.885  46.905 173.550  0.00  0.00     0.179 C 
ATOM     59  O5  SGN d 505     -18.091  46.464 173.007  0.00  0.00    -0.327 OA
BRANCH  54  60
ATOM     60  N   SGN d 505     -20.261  46.332 175.966  0.00  0.00    -0.162 NA
BRANCH  60  61
ATOM     61  S1  SGN d 505     -20.970  44.994 176.686  0.00  0.00     0.227 S 
ATOM     62  O3S SGN d 505     -22.215  44.786 176.037  0.00  0.00    -0.577 OA
ATOM     63  O1S SGN d 505     -20.059  43.880 176.530  0.00  0.00    -0.577 OA
ATOM     64  O2S SGN d 505     -21.152  45.368 178.069  0.00  0.00    -0.577 OA
ENDBRANCH  60  61
ENDBRANCH  54  60
BRANCH  56  65
ATOM     65  O4  SGN d 505     -15.288  46.573 175.199  0.00  0.00    -0.326 OA
BRANCH  65  66
ATOM     66  C1  IDS d 506     -14.341  45.697 175.707  0.00  0.00     0.269 C 
ATOM     67  C2  IDS d 506     -13.233  46.508 176.394  0.00  0.00     0.226 C 
ATOM     68  C3  IDS d 506     -11.960  45.672 176.702  0.00  0.00     0.219 C 
ATOM     69  O3  IDS d 506     -12.161  44.976 177.929  0.00  0.00    -0.218 OA
ATOM     70  C4  IDS d 506     -11.612  44.643 175.605  0.00  0.00     0.223 C 
ATOM     71  O4  IDS d 506     -10.929  45.333 174.585  0.00  0.00    -0.217 OA
ATOM     72  C5  IDS d 506     -12.885  44.006 175.036  0.00  0.00     0.237 C 
ATOM     73  O5  IDS d 506     -13.774  44.994 174.631  0.00  0.00    -0.318 OA
BRANCH  67  74
ATOM     74  O2  IDS d 506     -12.828  47.579 175.564  0.00  0.00    -0.233 OA
BRANCH  74  75
ATOM     75  S   IDS d 506     -12.731  49.123 175.926  0.00  0.00     0.252 S 
ATOM     76  O1S IDS d 506     -12.279  49.158 177.283  0.00  0.00    -0.572 OA
ATOM     77  O2S IDS d 506     -11.771  49.728 175.048  0.00  0.00    -0.572 OA
ATOM     78  O3S IDS d 506     -14.069  49.646 175.757  0.00  0.00    -0.572 OA
ENDBRANCH  74  75
ENDBRANCH  67  74
BRANCH  72  79
ATOM     79  C6  IDS d 506     -12.698  43.005 173.911  0.00  0.00     0.217 C 
ATOM     80  O61 IDS d 506     -11.618  42.454 173.755  0.00  0.00    -0.646 OA
ATOM     81  O62 IDS d 506     -13.596  42.734 173.132  0.00  0.00    -0.646 OA
ENDBRANCH  72  79
ENDBRANCH  65  66
ENDBRANCH  56  65
BRANCH  58  82
ATOM     82  C6  SGN d 505     -15.845  46.677 172.502  0.00  0.00     0.198 C 
BRANCH  82  83
ATOM     83  O6  SGN d 505     -16.102  45.408 172.006  0.00  0.00    -0.235 OA
BRANCH  83  84
ATOM     84  S2  SGN d 505     -16.068  44.964 170.551  0.00  0.00     0.252 S 
ATOM     85  O6S SGN d 505     -15.934  46.169 169.743  0.00  0.00    -0.572 OA
ATOM     86  O4S SGN d 505     -14.915  44.098 170.457  0.00  0.00    -0.572 OA
ATOM     87  O5S SGN d 505     -17.332  44.300 170.345  0.00  0.00    -0.572 OA
ENDBRANCH  83  84
ENDBRANCH  82  83
ENDBRANCH  58  82
ENDBRANCH  52  53
ENDBRANCH   7  52
TORSDOF 27

ENDMDL
MODEL 39
REMARK VINA RESULT:       4.5      3.792     10.058
REMARK  27 active torsions:
REMARK  status: ('A' for Active; 'I' for Inactive)
REMARK    1  A    between atoms: C2_1  and  O2_78 
REMARK    2  A    between atoms: C1_3  and  O4_50 
REMARK    3  A    between atoms: O4_5  and  C4_58 
REMARK    4  A    between atoms: O4_5  and  C1_27 
REMARK    5  A    between atoms: C2_6  and  N_39 
REMARK    6  A    between atoms: S1_9  and  N_39 
REMARK    7  A    between atoms: C6_10  and  C5_52 
REMARK    8  A    between atoms: C2_12  and  N_73 
REMARK    9  A    between atoms: C2_19  and  O2_24 
REMARK   10  A    between atoms: C2_21  and  O2_44 
REMARK   11  A    between atoms: S2_23  and  O6_65 
REMARK   12  A    between atoms: O2_24  and  S_54 
REMARK   13  A    between atoms: C1_28  and  O4_60 
REMARK   14  A    between atoms: C5_29  and  C6_38 
REMARK   15  A    between atoms: C5_30  and  C6_33 
REMARK   16  A    between atoms: S1_34  and  N_73 
REMARK   17  A    between atoms: C5_41  and  C6_46 
REMARK   18  A    between atoms: S_43  and  O2_44 
REMARK   19  A    between atoms: C6_46  and  O6_72 
REMARK   20  A    between atoms: O4_50  and  C4_71 
REMARK   21  A    between atoms: C1_56  and  O4_64 
REMARK   22  A    between atoms: O4_60  and  C4_83 
REMARK   23  A    between atoms: C4_61  and  O4_64 
REMARK   24  A    between atoms: S2_63  and  O6_72 
REMARK   25  A    between atoms: O6_65  and  C6_67 
REMARK   26  A    between atoms: C6_67  and  C5_75 
REMARK   27  A    between atoms: S_76  and  O2_78 
ROOT
ATOM      1  C2  IDS d 504     -12.782  47.043 174.578  0.00  0.00     0.226 C 
ATOM      2  O3  IDS d 504     -12.799  47.673 176.948  0.00  0.00    -0.218 OA
ATOM      3  O5  IDS d 504     -11.184  48.796 174.024  0.00  0.00    -0.318 OA
ATOM      4  C5  IDS d 504     -11.540  49.581 175.139  0.00  0.00     0.234 C 
ATOM      5  C1  IDS d 504     -11.351  47.387 174.217  0.00  0.00     0.269 C 
ATOM      6  C3  IDS d 504     -13.370  47.998 175.687  0.00  0.00     0.216 C 
ATOM      7  C4  IDS d 504     -13.038  49.456 175.409  0.00  0.00     0.189 C 
ENDROOT
BRANCH   5   8
ATOM      8  O4  SGN d 503     -10.512  46.879 175.213  0.00  0.00    -0.326 OA
BRANCH   8   9
ATOM      9  C4  SGN d 503      -9.392  46.214 174.725  0.00  0.00     0.180 C 
ATOM     10  C3  SGN d 503      -9.830  45.305 173.579  0.00  0.00     0.210 C 
ATOM     11  C2  SGN d 503      -8.587  44.751 172.907  0.00  0.00     0.207 C 
ATOM     12  O3  SGN d 503     -10.596  44.248 174.123  0.00  0.00    -0.218 OA
ATOM     13  C1  SGN d 503      -7.620  45.871 172.494  0.00  0.00     0.263 C 
ATOM     14  O5  SGN d 503      -7.283  46.640 173.621  0.00  0.00    -0.327 OA
ATOM     15  C5  SGN d 503      -8.381  47.257 174.218  0.00  0.00     0.179 C 
BRANCH  11  16
ATOM     16  N   SGN d 503      -8.928  43.925 171.762  0.00  0.00    -0.162 NA
BRANCH  16  17
ATOM     17  S1  SGN d 503      -7.948  42.672 171.419  0.00  0.00     0.227 S 
ATOM     18  O1S SGN d 503      -8.807  41.607 170.938  0.00  0.00    -0.577 OA
ATOM     19  O2S SGN d 503      -6.990  43.106 170.404  0.00  0.00    -0.577 OA
ATOM     20  O3S SGN d 503      -7.346  42.363 172.697  0.00  0.00    -0.577 OA
ENDBRANCH  16  17
ENDBRANCH  11  16
BRANCH  13  21
ATOM     21  O4  IDS d 502      -8.176  46.663 171.479  0.00  0.00    -0.326 OA
BRANCH  21  22
ATOM     22  C4  IDS d 502      -7.361  46.825 170.347  0.00  0.00     0.189 C 
ATOM     23  C3  IDS d 502      -8.169  46.495 169.077  0.00  0.00     0.216 C 
ATOM     24  O3  IDS d 502      -7.291  46.465 167.969  0.00  0.00    -0.218 OA
ATOM     25  C2  IDS d 502      -9.233  47.564 168.812  0.00  0.00     0.229 C 
ATOM     26  C1  IDS d 502      -8.657  48.974 168.901  0.00  0.00     0.301 C 
ATOM     27  O1  IDS d 502      -7.870  49.191 167.760  0.00  0.00    -0.187 OA
ATOM     28  O5  IDS d 502      -7.941  49.159 170.095  0.00  0.00    -0.316 OA
ATOM     29  C5  IDS d 502      -6.861  48.266 170.284  0.00  0.00     0.234 C 
BRANCH  25  30
ATOM     30  O2  IDS d 502     -10.214  47.431 169.806  0.00  0.00    -0.232 OA
BRANCH  30  31
ATOM     31  S   IDS d 502     -11.753  47.673 169.670  0.00  0.00     0.252 S 
ATOM     32  O3S IDS d 502     -12.078  48.581 170.740  0.00  0.00    -0.572 OA
ATOM     33  O2S IDS d 502     -12.370  46.373 169.801  0.00  0.00    -0.572 OA
ATOM     34  O1S IDS d 502     -11.980  48.258 168.377  0.00  0.00    -0.572 OA
ENDBRANCH  30  31
ENDBRANCH  25  30
BRANCH  29  35
ATOM     35  C6  IDS d 502      -6.016  48.687 171.478  0.00  0.00     0.216 C 
ATOM     36  O61 IDS d 502      -6.347  49.606 172.187  0.00  0.00    -0.646 OA
ATOM     37  O62 IDS d 502      -4.984  48.105 171.751  0.00  0.00    -0.646 OA
ENDBRANCH  29  35
ENDBRANCH  21  22
ENDBRANCH  13  21
BRANCH  15  38
ATOM     38  C6  SGN d 503      -7.788  48.124 175.296  0.00  0.00     0.198 C 
BRANCH  38  39
ATOM     39  O6  SGN d 503      -7.968  49.468 174.907  0.00  0.00    -0.235 OA
BRANCH  39  40
ATOM     40  S2  SGN d 503      -7.265  50.695 175.545  0.00  0.00     0.252 S 
ATOM     41  O4S SGN d 503      -7.383  51.795 174.649  0.00  0.00    -0.572 OA
ATOM     42  O5S SGN d 503      -7.931  50.955 176.818  0.00  0.00    -0.572 OA
ATOM     43  O6S SGN d 503      -5.916  50.294 175.646  0.00  0.00    -0.572 OA
ENDBRANCH  39  40
ENDBRANCH  38  39
ENDBRANCH  15  38
ENDBRANCH   8   9
ENDBRANCH   5   8
BRANCH   1  44
ATOM     44  O2  IDS d 504     -13.572  47.110 173.393  0.00  0.00    -0.233 OA
BRANCH  44  45
ATOM     45  S   IDS d 504     -14.467  45.995 172.820  0.00  0.00     0.252 S 
ATOM     46  O3S IDS d 504     -15.429  45.784 173.837  0.00  0.00    -0.572 OA
ATOM     47  O2S IDS d 504     -13.628  44.867 172.539  0.00  0.00    -0.572 OA
ATOM     48  O1S IDS d 504     -15.051  46.519 171.640  0.00  0.00    -0.572 OA
ENDBRANCH  44  45
ENDBRANCH   1  44
BRANCH   4  49
ATOM     49  C6  IDS d 504     -11.025  51.020 174.971  0.00  0.00     0.216 C 
ATOM     50  O62 IDS d 504     -10.635  51.433 173.876  0.00  0.00    -0.646 OA
ATOM     51  O61 IDS d 504     -10.972  51.785 175.925  0.00  0.00    -0.646 OA
ENDBRANCH   4  49
BRANCH   7  52
ATOM     52  O4  IDS d 504     -13.777  49.899 174.280  0.00  0.00    -0.326 OA
BRANCH  52  53
ATOM     53  C1  SGN d 505     -14.975  50.549 174.605  0.00  0.00     0.263 C 
ATOM     54  C2  SGN d 505     -15.873  50.703 173.393  0.00  0.00     0.207 C 
ATOM     55  C3  SGN d 505     -15.241  51.662 172.364  0.00  0.00     0.210 C 
ATOM     56  C4  SGN d 505     -15.010  53.000 173.123  0.00  0.00     0.180 C 
ATOM     57  O3  SGN d 505     -16.161  51.846 171.296  0.00  0.00    -0.218 OA
ATOM     58  C5  SGN d 505     -14.097  52.692 174.266  0.00  0.00     0.179 C 
ATOM     59  O5  SGN d 505     -14.712  51.810 175.154  0.00  0.00    -0.327 OA
BRANCH  54  60
ATOM     60  N   SGN d 505     -16.230  49.362 172.874  0.00  0.00    -0.162 NA
BRANCH  60  61
ATOM     61  S1  SGN d 505     -17.857  49.024 172.660  0.00  0.00     0.227 S 
ATOM     62  O3S SGN d 505     -18.583  50.108 173.220  0.00  0.00    -0.577 OA
ATOM     63  O1S SGN d 505     -18.087  48.863 171.239  0.00  0.00    -0.577 OA
ATOM     64  O2S SGN d 505     -18.083  47.802 173.397  0.00  0.00    -0.577 OA
ENDBRANCH  60  61
ENDBRANCH  54  60
BRANCH  56  65
ATOM     65  O4  SGN d 505     -14.368  54.018 172.383  0.00  0.00    -0.326 OA
BRANCH  65  66
ATOM     66  C1  IDS d 506     -15.049  54.978 171.650  0.00  0.00     0.269 C 
ATOM     67  C2  IDS d 506     -14.030  55.832 170.882  0.00  0.00     0.226 C 
ATOM     68  C3  IDS d 506     -14.637  57.139 170.300  0.00  0.00     0.219 C 
ATOM     69  O3  IDS d 506     -15.263  56.832 169.057  0.00  0.00    -0.218 OA
ATOM     70  C4  IDS d 506     -15.680  57.804 171.223  0.00  0.00     0.223 C 
ATOM     71  O4  IDS d 506     -14.971  58.547 172.187  0.00  0.00    -0.217 OA
ATOM     72  C5  IDS d 506     -16.544  56.746 171.917  0.00  0.00     0.237 C 
ATOM     73  O5  IDS d 506     -15.736  55.810 172.550  0.00  0.00    -0.318 OA
BRANCH  67  74
ATOM     74  O2  IDS d 506     -12.975  56.219 171.741  0.00  0.00    -0.233 OA
BRANCH  74  75
ATOM     75  S   IDS d 506     -11.532  56.756 171.347  0.00  0.00     0.252 S 
ATOM     76  O1S IDS d 506     -11.632  58.181 171.426  0.00  0.00    -0.572 OA
ATOM     77  O2S IDS d 506     -10.591  56.250 172.305  0.00  0.00    -0.572 OA
ATOM     78  O3S IDS d 506     -11.294  56.275 170.003  0.00  0.00    -0.572 OA
ENDBRANCH  74  75
ENDBRANCH  67  74
BRANCH  72  79
ATOM     79  C6  IDS d 506     -17.586  57.256 172.896  0.00  0.00     0.217 C 
ATOM     80  O61 IDS d 506     -17.485  56.995 174.087  0.00  0.00    -0.646 OA
ATOM     81  O62 IDS d 506     -18.545  57.915 172.534  0.00  0.00    -0.646 OA
ENDBRANCH  72  79
ENDBRANCH  65  66
ENDBRANCH  56  65
BRANCH  58  82
ATOM     82  C6  SGN d 505     -13.735  53.903 175.062  0.00  0.00     0.198 C 
BRANCH  82  83
ATOM     83  O6  SGN d 505     -14.940  54.529 175.340  0.00  0.00    -0.235 OA
BRANCH  83  84
ATOM     84  S2  SGN d 505     -15.554  54.782 176.709  0.00  0.00     0.252 S 
ATOM     85  O6S SGN d 505     -17.000  54.768 176.535  0.00  0.00    -0.572 OA
ATOM     86  O4S SGN d 505     -15.080  53.691 177.531  0.00  0.00    -0.572 OA
ATOM     87  O5S SGN d 505     -15.057  56.079 177.094  0.00  0.00    -0.572 OA
ENDBRANCH  83  84
ENDBRANCH  82  83
ENDBRANCH  58  82
ENDBRANCH  52  53
ENDBRANCH   7  52
TORSDOF 27

ENDMDL
MODEL 40
REMARK VINA RESULT:       4.5      4.629      8.196
REMARK  27 active torsions:
REMARK  status: ('A' for Active; 'I' for Inactive)
REMARK    1  A    between atoms: C2_1  and  O2_78 
REMARK    2  A    between atoms: C1_3  and  O4_50 
REMARK    3  A    between atoms: O4_5  and  C4_58 
REMARK    4  A    between atoms: O4_5  and  C1_27 
REMARK    5  A    between atoms: C2_6  and  N_39 
REMARK    6  A    between atoms: S1_9  and  N_39 
REMARK    7  A    between atoms: C6_10  and  C5_52 
REMARK    8  A    between atoms: C2_12  and  N_73 
REMARK    9  A    between atoms: C2_19  and  O2_24 
REMARK   10  A    between atoms: C2_21  and  O2_44 
REMARK   11  A    between atoms: S2_23  and  O6_65 
REMARK   12  A    between atoms: O2_24  and  S_54 
REMARK   13  A    between atoms: C1_28  and  O4_60 
REMARK   14  A    between atoms: C5_29  and  C6_38 
REMARK   15  A    between atoms: C5_30  and  C6_33 
REMARK   16  A    between atoms: S1_34  and  N_73 
REMARK   17  A    between atoms: C5_41  and  C6_46 
REMARK   18  A    between atoms: S_43  and  O2_44 
REMARK   19  A    between atoms: C6_46  and  O6_72 
REMARK   20  A    between atoms: O4_50  and  C4_71 
REMARK   21  A    between atoms: C1_56  and  O4_64 
REMARK   22  A    between atoms: O4_60  and  C4_83 
REMARK   23  A    between atoms: C4_61  and  O4_64 
REMARK   24  A    between atoms: S2_63  and  O6_72 
REMARK   25  A    between atoms: O6_65  and  C6_67 
REMARK   26  A    between atoms: C6_67  and  C5_75 
REMARK   27  A    between atoms: S_76  and  O2_78 
ROOT
ATOM      1  C2  IDS d 504     -16.370  51.316 175.573  0.00  0.00     0.226 C 
ATOM      2  O3  IDS d 504     -18.305  49.888 175.091  0.00  0.00    -0.218 OA
ATOM      3  O5  IDS d 504     -15.835  51.556 173.208  0.00  0.00    -0.318 OA
ATOM      4  C5  IDS d 504     -16.487  50.356 172.860  0.00  0.00     0.234 C 
ATOM      5  C1  IDS d 504     -16.386  52.215 174.353  0.00  0.00     0.269 C 
ATOM      6  C3  IDS d 504     -16.892  49.862 175.257  0.00  0.00     0.216 C 
ATOM      7  C4  IDS d 504     -16.301  49.319 173.965  0.00  0.00     0.189 C 
ENDROOT
BRANCH   5   8
ATOM      8  O4  SGN d 503     -17.699  52.647 174.142  0.00  0.00    -0.326 OA
BRANCH   8   9
ATOM      9  C4  SGN d 503     -17.845  53.511 173.063  0.00  0.00     0.180 C 
ATOM     10  C3  SGN d 503     -19.259  53.361 172.509  0.00  0.00     0.210 C 
ATOM     11  C2  SGN d 503     -19.489  54.453 171.481  0.00  0.00     0.207 C 
ATOM     12  O3  SGN d 503     -19.358  52.091 171.893  0.00  0.00    -0.218 OA
ATOM     13  C1  SGN d 503     -19.178  55.844 172.053  0.00  0.00     0.263 C 
ATOM     14  O5  SGN d 503     -17.856  55.870 172.530  0.00  0.00    -0.327 OA
ATOM     15  C5  SGN d 503     -17.617  54.953 173.551  0.00  0.00     0.179 C 
BRANCH  11  16
ATOM     16  N   SGN d 503     -20.842  54.410 170.956  0.00  0.00    -0.162 NA
BRANCH  16  17
ATOM     17  S1  SGN d 503     -21.036  54.627 169.355  0.00  0.00     0.227 S 
ATOM     18  O1S SGN d 503     -22.159  55.532 169.202  0.00  0.00    -0.577 OA
ATOM     19  O2S SGN d 503     -19.799  55.191 168.817  0.00  0.00    -0.577 OA
ATOM     20  O3S SGN d 503     -21.329  53.296 168.873  0.00  0.00    -0.577 OA
ENDBRANCH  16  17
ENDBRANCH  11  16
BRANCH  13  21
ATOM     21  O4  IDS d 502     -20.093  56.188 173.058  0.00  0.00    -0.326 OA
BRANCH  21  22
ATOM     22  C4  IDS d 502     -21.028  57.169 172.691  0.00  0.00     0.189 C 
ATOM     23  C3  IDS d 502     -22.451  56.586 172.781  0.00  0.00     0.216 C 
ATOM     24  O3  IDS d 502     -23.363  57.511 172.221  0.00  0.00    -0.218 OA
ATOM     25  C2  IDS d 502     -22.854  56.346 174.239  0.00  0.00     0.229 C 
ATOM     26  C1  IDS d 502     -22.563  57.559 175.117  0.00  0.00     0.301 C 
ATOM     27  O1  IDS d 502     -23.509  58.550 174.811  0.00  0.00    -0.187 OA
ATOM     28  O5  IDS d 502     -21.241  58.005 174.951  0.00  0.00    -0.316 OA
ATOM     29  C5  IDS d 502     -20.899  58.368 173.628  0.00  0.00     0.234 C 
BRANCH  25  30
ATOM     30  O2  IDS d 502     -22.086  55.273 174.713  0.00  0.00    -0.232 OA
BRANCH  30  31
ATOM     31  S   IDS d 502     -22.572  53.827 175.062  0.00  0.00     0.252 S 
ATOM     32  O3S IDS d 502     -23.171  53.338 173.847  0.00  0.00    -0.572 OA
ATOM     33  O2S IDS d 502     -23.506  53.979 176.153  0.00  0.00    -0.572 OA
ATOM     34  O1S IDS d 502     -21.413  53.067 175.437  0.00  0.00    -0.572 OA
ENDBRANCH  30  31
ENDBRANCH  25  30
BRANCH  29  35
ATOM     35  C6  IDS d 502     -19.536  59.046 173.590  0.00  0.00     0.216 C 
ATOM     36  O61 IDS d 502     -18.939  59.308 174.606  0.00  0.00    -0.646 OA
ATOM     37  O62 IDS d 502     -19.011  59.338 172.534  0.00  0.00    -0.646 OA
ENDBRANCH  29  35
ENDBRANCH  21  22
ENDBRANCH  13  21
BRANCH  15  38
ATOM     38  C6  SGN d 503     -16.211  55.243 174.001  0.00  0.00     0.198 C 
BRANCH  38  39
ATOM     39  O6  SGN d 503     -16.209  55.249 175.412  0.00  0.00    -0.235 OA
BRANCH  39  40
ATOM     40  S2  SGN d 503     -16.242  56.514 176.310  0.00  0.00     0.252 S 
ATOM     41  O4S SGN d 503     -15.338  56.318 177.392  0.00  0.00    -0.572 OA
ATOM     42  O5S SGN d 503     -15.852  57.643 175.471  0.00  0.00    -0.572 OA
ATOM     43  O6S SGN d 503     -17.569  56.552 176.787  0.00  0.00    -0.572 OA
ENDBRANCH  39  40
ENDBRANCH  38  39
ENDBRANCH  15  38
ENDBRANCH   8   9
ENDBRANCH   5   8
BRANCH   1  44
ATOM     44  O2  IDS d 504     -15.036  51.268 176.077  0.00  0.00    -0.233 OA
BRANCH  44  45
ATOM     45  S   IDS d 504     -14.554  51.763 177.453  0.00  0.00     0.252 S 
ATOM     46  O3S IDS d 504     -15.258  50.943 178.367  0.00  0.00    -0.572 OA
ATOM     47  O2S IDS d 504     -14.856  53.161 177.541  0.00  0.00    -0.572 OA
ATOM     48  O1S IDS d 504     -13.158  51.526 177.496  0.00  0.00    -0.572 OA
ENDBRANCH  44  45
ENDBRANCH   1  44
BRANCH   4  49
ATOM     49  C6  IDS d 504     -16.057  49.898 171.456  0.00  0.00     0.216 C 
ATOM     50  O62 IDS d 504     -15.031  50.335 170.930  0.00  0.00    -0.646 OA
ATOM     51  O61 IDS d 504     -16.734  49.101 170.819  0.00  0.00    -0.646 OA
ENDBRANCH   4  49
BRANCH   7  52
ATOM     52  O4  IDS d 504     -14.919  49.052 174.158  0.00  0.00    -0.326 OA
BRANCH  52  53
ATOM     53  C1  SGN d 505     -14.641  47.722 174.502  0.00  0.00     0.263 C 
ATOM     54  C2  SGN d 505     -13.347  47.609 175.285  0.00  0.00     0.207 C 
ATOM     55  C3  SGN d 505     -12.140  47.985 174.404  0.00  0.00     0.210 C 
ATOM     56  C4  SGN d 505     -12.196  47.024 173.181  0.00  0.00     0.180 C 
ATOM     57  O3  SGN d 505     -10.951  47.771 175.153  0.00  0.00    -0.218 OA
ATOM     58  C5  SGN d 505     -13.507  47.268 172.506  0.00  0.00     0.179 C 
ATOM     59  O5  SGN d 505     -14.561  46.927 173.353  0.00  0.00    -0.327 OA
BRANCH  54  60
ATOM     60  N   SGN d 505     -13.472  48.371 176.549  0.00  0.00    -0.162 NA
BRANCH  60  61
ATOM     61  S1  SGN d 505     -14.001  47.540 177.905  0.00  0.00     0.227 S 
ATOM     62  O3S SGN d 505     -13.514  48.244 179.038  0.00  0.00    -0.577 OA
ATOM     63  O1S SGN d 505     -15.446  47.487 177.851  0.00  0.00    -0.577 OA
ATOM     64  O2S SGN d 505     -13.397  46.232 177.799  0.00  0.00    -0.577 OA
ENDBRANCH  60  61
ENDBRANCH  54  60
BRANCH  56  65
ATOM     65  O4  SGN d 505     -11.209  47.237 172.194  0.00  0.00    -0.326 OA
BRANCH  65  66
ATOM     66  C1  IDS d 506     -10.046  46.488 172.100  0.00  0.00     0.269 C 
ATOM     67  C2  IDS d 506      -9.224  46.995 170.905  0.00  0.00     0.226 C 
ATOM     68  C3  IDS d 506      -8.078  46.030 170.493  0.00  0.00     0.219 C 
ATOM     69  O3  IDS d 506      -6.952  46.283 171.329  0.00  0.00    -0.218 OA
ATOM     70  C4  IDS d 506      -8.451  44.537 170.610  0.00  0.00     0.223 C 
ATOM     71  O4  IDS d 506      -9.174  44.195 169.451  0.00  0.00    -0.217 OA
ATOM     72  C5  IDS d 506      -9.314  44.289 171.851  0.00  0.00     0.237 C 
ATOM     73  O5  IDS d 506     -10.404  45.152 171.855  0.00  0.00    -0.318 OA
BRANCH  67  74
ATOM     74  O2  IDS d 506     -10.057  47.149 169.773  0.00  0.00    -0.233 OA
BRANCH  74  75
ATOM     75  S   IDS d 506      -9.880  48.147 168.549  0.00  0.00     0.252 S 
ATOM     76  O1S IDS d 506      -9.256  47.371 167.523  0.00  0.00    -0.572 OA
ATOM     77  O2S IDS d 506     -11.184  48.588 168.141  0.00  0.00    -0.572 OA
ATOM     78  O3S IDS d 506      -9.043  49.219 169.042  0.00  0.00    -0.572 OA
ENDBRANCH  74  75
ENDBRANCH  67  74
BRANCH  72  79
ATOM     79  C6  IDS d 506      -9.798  42.867 172.069  0.00  0.00     0.217 C 
ATOM     80  O61 IDS d 506      -9.076  42.055 172.631  0.00  0.00    -0.646 OA
ATOM     81  O62 IDS d 506     -10.891  42.490 171.686  0.00  0.00    -0.646 OA
ENDBRANCH  72  79
ENDBRANCH  65  66
ENDBRANCH  56  65
BRANCH  58  82
ATOM     82  C6  SGN d 505     -13.682  46.450 171.268  0.00  0.00     0.198 C 
BRANCH  82  83
ATOM     83  O6  SGN d 505     -13.907  47.369 170.254  0.00  0.00    -0.235 OA
BRANCH  83  84
ATOM     84  S2  SGN d 505     -14.586  47.118 168.916  0.00  0.00     0.252 S 
ATOM     85  O6S SGN d 505     -14.659  48.400 168.230  0.00  0.00    -0.572 OA
ATOM     86  O4S SGN d 505     -13.729  46.171 168.240  0.00  0.00    -0.572 OA
ATOM     87  O5S SGN d 505     -15.888  46.603 169.263  0.00  0.00    -0.572 OA
ENDBRANCH  83  84
ENDBRANCH  82  83
ENDBRANCH  58  82
ENDBRANCH  52  53
ENDBRANCH   7  52
TORSDOF 27

ENDMDL
MODEL 41
REMARK VINA RESULT:       4.6      3.717      8.505
REMARK  27 active torsions:
REMARK  status: ('A' for Active; 'I' for Inactive)
REMARK    1  A    between atoms: C2_1  and  O2_78 
REMARK    2  A    between atoms: C1_3  and  O4_50 
REMARK    3  A    between atoms: O4_5  and  C4_58 
REMARK    4  A    between atoms: O4_5  and  C1_27 
REMARK    5  A    between atoms: C2_6  and  N_39 
REMARK    6  A    between atoms: S1_9  and  N_39 
REMARK    7  A    between atoms: C6_10  and  C5_52 
REMARK    8  A    between atoms: C2_12  and  N_73 
REMARK    9  A    between atoms: C2_19  and  O2_24 
REMARK   10  A    between atoms: C2_21  and  O2_44 
REMARK   11  A    between atoms: S2_23  and  O6_65 
REMARK   12  A    between atoms: O2_24  and  S_54 
REMARK   13  A    between atoms: C1_28  and  O4_60 
REMARK   14  A    between atoms: C5_29  and  C6_38 
REMARK   15  A    between atoms: C5_30  and  C6_33 
REMARK   16  A    between atoms: S1_34  and  N_73 
REMARK   17  A    between atoms: C5_41  and  C6_46 
REMARK   18  A    between atoms: S_43  and  O2_44 
REMARK   19  A    between atoms: C6_46  and  O6_72 
REMARK   20  A    between atoms: O4_50  and  C4_71 
REMARK   21  A    between atoms: C1_56  and  O4_64 
REMARK   22  A    between atoms: O4_60  and  C4_83 
REMARK   23  A    between atoms: C4_61  and  O4_64 
REMARK   24  A    between atoms: S2_63  and  O6_72 
REMARK   25  A    between atoms: O6_65  and  C6_67 
REMARK   26  A    between atoms: C6_67  and  C5_75 
REMARK   27  A    between atoms: S_76  and  O2_78 
ROOT
ATOM      1  C2  IDS d 504     -13.827  47.428 175.580  0.00  0.00     0.226 C 
ATOM      2  O3  IDS d 504     -12.483  47.228 173.539  0.00  0.00    -0.218 OA
ATOM      3  O5  IDS d 504     -15.852  47.913 174.316  0.00  0.00    -0.318 OA
ATOM      4  C5  IDS d 504     -15.134  48.393 173.202  0.00  0.00     0.234 C 
ATOM      5  C1  IDS d 504     -15.162  46.917 175.077  0.00  0.00     0.269 C 
ATOM      6  C3  IDS d 504     -13.007  48.176 174.460  0.00  0.00     0.216 C 
ATOM      7  C4  IDS d 504     -13.882  49.134 173.666  0.00  0.00     0.189 C 
ENDROOT
BRANCH   5   8
ATOM      8  O4  SGN d 503     -14.937  45.745 174.347  0.00  0.00    -0.326 OA
BRANCH   8   9
ATOM      9  C4  SGN d 503     -16.021  44.875 174.324  0.00  0.00     0.180 C 
ATOM     10  C3  SGN d 503     -16.871  45.127 175.568  0.00  0.00     0.210 C 
ATOM     11  C2  SGN d 503     -18.161  44.339 175.433  0.00  0.00     0.207 C 
ATOM     12  O3  SGN d 503     -16.146  44.675 176.695  0.00  0.00    -0.218 OA
ATOM     13  C1  SGN d 503     -18.873  44.642 174.107  0.00  0.00     0.263 C 
ATOM     14  O5  SGN d 503     -18.005  44.374 173.034  0.00  0.00    -0.327 OA
ATOM     15  C5  SGN d 503     -16.846  45.148 173.054  0.00  0.00     0.179 C 
BRANCH  11  16
ATOM     16  N   SGN d 503     -19.050  44.582 176.555  0.00  0.00    -0.162 NA
BRANCH  16  17
ATOM     17  S1  SGN d 503     -19.613  43.287 177.364  0.00  0.00     0.227 S 
ATOM     18  O1S SGN d 503     -18.974  43.313 178.665  0.00  0.00    -0.577 OA
ATOM     19  O2S SGN d 503     -21.067  43.408 177.464  0.00  0.00    -0.577 OA
ATOM     20  O3S SGN d 503     -19.174  42.173 176.554  0.00  0.00    -0.577 OA
ENDBRANCH  16  17
ENDBRANCH  11  16
BRANCH  13  21
ATOM     21  O4  IDS d 502     -19.332  45.966 174.076  0.00  0.00    -0.326 OA
BRANCH  21  22
ATOM     22  C4  IDS d 502     -20.715  46.105 173.874  0.00  0.00     0.189 C 
ATOM     23  C3  IDS d 502     -21.323  46.941 175.016  0.00  0.00     0.216 C 
ATOM     24  O3  IDS d 502     -22.733  46.904 174.913  0.00  0.00    -0.218 OA
ATOM     25  C2  IDS d 502     -20.878  48.403 174.921  0.00  0.00     0.229 C 
ATOM     26  C1  IDS d 502     -21.048  48.959 173.511  0.00  0.00     0.301 C 
ATOM     27  O1  IDS d 502     -22.419  49.155 173.287  0.00  0.00    -0.187 OA
ATOM     28  O5  IDS d 502     -20.459  48.115 172.554  0.00  0.00    -0.316 OA
ATOM     29  C5  IDS d 502     -20.966  46.795 172.536  0.00  0.00     0.234 C 
BRANCH  25  30
ATOM     30  O2  IDS d 502     -19.514  48.446 175.244  0.00  0.00    -0.232 OA
BRANCH  30  31
ATOM     31  S   IDS d 502     -18.758  49.541 176.065  0.00  0.00     0.252 S 
ATOM     32  O3S IDS d 502     -17.661  48.844 176.686  0.00  0.00    -0.572 OA
ATOM     33  O2S IDS d 502     -19.722  50.066 177.005  0.00  0.00    -0.572 OA
ATOM     34  O1S IDS d 502     -18.306  50.537 175.133  0.00  0.00    -0.572 OA
ENDBRANCH  30  31
ENDBRANCH  25  30
BRANCH  29  35
ATOM     35  C6  IDS d 502     -20.436  46.032 171.330  0.00  0.00     0.216 C 
ATOM     36  O61 IDS d 502     -20.993  45.042 170.921  0.00  0.00    -0.646 OA
ATOM     37  O62 IDS d 502     -19.438  46.403 170.743  0.00  0.00    -0.646 OA
ENDBRANCH  29  35
ENDBRANCH  21  22
ENDBRANCH  13  21
BRANCH  15  38
ATOM     38  C6  SGN d 503     -16.141  44.808 171.769  0.00  0.00     0.198 C 
BRANCH  38  39
ATOM     39  O6  SGN d 503     -15.918  46.015 171.074  0.00  0.00    -0.235 OA
BRANCH  39  40
ATOM     40  S2  SGN d 503     -14.810  46.257 170.016  0.00  0.00     0.252 S 
ATOM     41  O4S SGN d 503     -13.820  47.104 170.590  0.00  0.00    -0.572 OA
ATOM     42  O5S SGN d 503     -14.268  44.949 169.658  0.00  0.00    -0.572 OA
ATOM     43  O6S SGN d 503     -15.481  46.932 168.975  0.00  0.00    -0.572 OA
ENDBRANCH  39  40
ENDBRANCH  38  39
ENDBRANCH  15  38
ENDBRANCH   8   9
ENDBRANCH   5   8
BRANCH   1  44
ATOM     44  O2  IDS d 504     -14.068  48.296 176.686  0.00  0.00    -0.233 OA
BRANCH  44  45
ATOM     45  S   IDS d 504     -13.952  47.938 178.179  0.00  0.00     0.252 S 
ATOM     46  O3S IDS d 504     -15.298  47.862 178.609  0.00  0.00    -0.572 OA
ATOM     47  O2S IDS d 504     -13.174  48.963 178.811  0.00  0.00    -0.572 OA
ATOM     48  O1S IDS d 504     -13.305  46.679 178.239  0.00  0.00    -0.572 OA
ENDBRANCH  44  45
ENDBRANCH   1  44
BRANCH   4  49
ATOM     49  C6  IDS d 504     -16.059  49.194 172.270  0.00  0.00     0.216 C 
ATOM     50  O62 IDS d 504     -17.283  49.161 172.406  0.00  0.00    -0.646 OA
ATOM     51  O61 IDS d 504     -15.601  49.870 171.358  0.00  0.00    -0.646 OA
ENDBRANCH   4  49
BRANCH   7  52
ATOM     52  O4  IDS d 504     -14.242  50.233 174.490  0.00  0.00    -0.326 OA
BRANCH  52  53
ATOM     53  C1  SGN d 505     -13.558  51.418 174.185  0.00  0.00     0.263 C 
ATOM     54  C2  SGN d 505     -13.326  52.262 175.423  0.00  0.00     0.207 C 
ATOM     55  C3  SGN d 505     -14.662  52.783 175.987  0.00  0.00     0.210 C 
ATOM     56  C4  SGN d 505     -15.328  53.578 174.826  0.00  0.00     0.180 C 
ATOM     57  O3  SGN d 505     -14.384  53.643 177.085  0.00  0.00    -0.218 OA
ATOM     58  C5  SGN d 505     -15.510  52.615 173.699  0.00  0.00     0.179 C 
ATOM     59  O5  SGN d 505     -14.272  52.164 173.240  0.00  0.00    -0.327 OA
BRANCH  54  60
ATOM     60  N   SGN d 505     -12.486  51.506 176.380  0.00  0.00    -0.162 NA
BRANCH  60  61
ATOM     61  S1  SGN d 505     -10.953  51.054 175.875  0.00  0.00     0.227 S 
ATOM     62  O3S SGN d 505     -10.043  52.002 176.413  0.00  0.00    -0.577 OA
ATOM     63  O1S SGN d 505     -10.714  49.708 176.351  0.00  0.00    -0.577 OA
ATOM     64  O2S SGN d 505     -10.999  51.130 174.433  0.00  0.00    -0.577 OA
ENDBRANCH  60  61
ENDBRANCH  54  60
BRANCH  56  65
ATOM     65  O4  SGN d 505     -16.612  54.097 175.101  0.00  0.00    -0.326 OA
BRANCH  65  66
ATOM     66  C1  IDS d 506     -16.854  55.430 175.394  0.00  0.00     0.269 C 
ATOM     67  C2  IDS d 506     -18.363  55.696 175.289  0.00  0.00     0.226 C 
ATOM     68  C3  IDS d 506     -18.721  57.208 175.261  0.00  0.00     0.219 C 
ATOM     69  O3  IDS d 506     -18.765  57.687 176.603  0.00  0.00    -0.218 OA
ATOM     70  C4  IDS d 506     -17.717  58.069 174.465  0.00  0.00     0.223 C 
ATOM     71  O4  IDS d 506     -18.053  57.950 173.103  0.00  0.00    -0.217 OA
ATOM     72  C5  IDS d 506     -16.284  57.578 174.690  0.00  0.00     0.237 C 
ATOM     73  O5  IDS d 506     -16.199  56.215 174.430  0.00  0.00    -0.318 OA
BRANCH  67  74
ATOM     74  O2  IDS d 506     -18.875  55.132 174.098  0.00  0.00    -0.233 OA
BRANCH  74  75
ATOM     75  S   IDS d 506     -20.187  54.256 173.909  0.00  0.00     0.252 S 
ATOM     76  O1S IDS d 506     -19.733  53.024 173.340  0.00  0.00    -0.572 OA
ATOM     77  O2S IDS d 506     -20.772  54.042 175.202  0.00  0.00    -0.572 OA
ATOM     78  O3S IDS d 506     -21.036  55.017 173.017  0.00  0.00    -0.572 OA
ENDBRANCH  74  75
ENDBRANCH  67  74
BRANCH  72  79
ATOM     79  C6  IDS d 506     -15.190  58.304 173.928  0.00  0.00     0.217 C 
ATOM     80  O61 IDS d 506     -14.045  58.307 174.357  0.00  0.00    -0.646 OA
ATOM     81  O62 IDS d 506     -15.415  58.909 172.894  0.00  0.00    -0.646 OA
ENDBRANCH  72  79
ENDBRANCH  65  66
ENDBRANCH  56  65
BRANCH  58  82
ATOM     82  C6  SGN d 505     -16.197  53.225 172.520  0.00  0.00     0.198 C 
BRANCH  82  83
ATOM     83  O6  SGN d 505     -15.175  53.655 171.687  0.00  0.00    -0.235 OA
BRANCH  83  84
ATOM     84  S2  SGN d 505     -14.834  55.089 171.311  0.00  0.00     0.252 S 
ATOM     85  O6S SGN d 505     -16.072  55.854 171.392  0.00  0.00    -0.572 OA
ATOM     86  O4S SGN d 505     -13.858  55.504 172.292  0.00  0.00    -0.572 OA
ATOM     87  O5S SGN d 505     -14.328  55.000 169.964  0.00  0.00    -0.572 OA
ENDBRANCH  83  84
ENDBRANCH  82  83
ENDBRANCH  58  82
ENDBRANCH  52  53
ENDBRANCH   7  52
TORSDOF 27

ENDMDL
MODEL 42
REMARK VINA RESULT:       4.7      2.549      6.526
REMARK  27 active torsions:
REMARK  status: ('A' for Active; 'I' for Inactive)
REMARK    1  A    between atoms: C2_1  and  O2_78 
REMARK    2  A    between atoms: C1_3  and  O4_50 
REMARK    3  A    between atoms: O4_5  and  C4_58 
REMARK    4  A    between atoms: O4_5  and  C1_27 
REMARK    5  A    between atoms: C2_6  and  N_39 
REMARK    6  A    between atoms: S1_9  and  N_39 
REMARK    7  A    between atoms: C6_10  and  C5_52 
REMARK    8  A    between atoms: C2_12  and  N_73 
REMARK    9  A    between atoms: C2_19  and  O2_24 
REMARK   10  A    between atoms: C2_21  and  O2_44 
REMARK   11  A    between atoms: S2_23  and  O6_65 
REMARK   12  A    between atoms: O2_24  and  S_54 
REMARK   13  A    between atoms: C1_28  and  O4_60 
REMARK   14  A    between atoms: C5_29  and  C6_38 
REMARK   15  A    between atoms: C5_30  and  C6_33 
REMARK   16  A    between atoms: S1_34  and  N_73 
REMARK   17  A    between atoms: C5_41  and  C6_46 
REMARK   18  A    between atoms: S_43  and  O2_44 
REMARK   19  A    between atoms: C6_46  and  O6_72 
REMARK   20  A    between atoms: O4_50  and  C4_71 
REMARK   21  A    between atoms: C1_56  and  O4_64 
REMARK   22  A    between atoms: O4_60  and  C4_83 
REMARK   23  A    between atoms: C4_61  and  O4_64 
REMARK   24  A    between atoms: S2_63  and  O6_72 
REMARK   25  A    between atoms: O6_65  and  C6_67 
REMARK   26  A    between atoms: C6_67  and  C5_75 
REMARK   27  A    between atoms: S_76  and  O2_78 
ROOT
ATOM      1  C2  IDS d 504     -15.271  45.674 174.214  0.00  0.00     0.226 C 
ATOM      2  O3  IDS d 504     -16.085  44.470 172.239  0.00  0.00    -0.218 OA
ATOM      3  O5  IDS d 504     -14.919  47.721 172.941  0.00  0.00    -0.318 OA
ATOM      4  C5  IDS d 504     -14.793  47.031 171.719  0.00  0.00     0.234 C 
ATOM      5  C1  IDS d 504     -15.761  47.073 173.900  0.00  0.00     0.269 C 
ATOM      6  C3  IDS d 504     -14.897  44.861 172.916  0.00  0.00     0.216 C 
ATOM      7  C4  IDS d 504     -14.082  45.698 171.942  0.00  0.00     0.189 C 
ENDROOT
BRANCH   5   8
ATOM      8  O4  SGN d 503     -17.090  46.988 173.474  0.00  0.00    -0.326 OA
BRANCH   8   9
ATOM      9  C4  SGN d 503     -17.833  48.141 173.701  0.00  0.00     0.180 C 
ATOM     10  C3  SGN d 503     -17.600  48.592 175.141  0.00  0.00     0.210 C 
ATOM     11  C2  SGN d 503     -18.229  49.962 175.320  0.00  0.00     0.207 C 
ATOM     12  O3  SGN d 503     -18.223  47.659 176.001  0.00  0.00    -0.218 OA
ATOM     13  C1  SGN d 503     -17.737  50.955 174.258  0.00  0.00     0.263 C 
ATOM     14  O5  SGN d 503     -18.003  50.442 172.976  0.00  0.00    -0.327 OA
ATOM     15  C5  SGN d 503     -17.363  49.231 172.721  0.00  0.00     0.179 C 
BRANCH  11  16
ATOM     16  N   SGN d 503     -17.990  50.484 176.654  0.00  0.00    -0.162 NA
BRANCH  16  17
ATOM     17  S1  SGN d 503     -18.949  51.692 177.173  0.00  0.00     0.227 S 
ATOM     18  O1S SGN d 503     -18.262  52.298 178.298  0.00  0.00    -0.577 OA
ATOM     19  O2S SGN d 503     -19.134  52.634 176.070  0.00  0.00    -0.577 OA
ATOM     20  O3S SGN d 503     -20.159  51.008 177.567  0.00  0.00    -0.577 OA
ENDBRANCH  16  17
ENDBRANCH  11  16
BRANCH  13  21
ATOM     21  O4  IDS d 502     -16.373  51.233 174.426  0.00  0.00    -0.326 OA
BRANCH  21  22
ATOM     22  C4  IDS d 502     -16.059  52.598 174.527  0.00  0.00     0.189 C 
ATOM     23  C3  IDS d 502     -15.344  52.866 175.865  0.00  0.00     0.216 C 
ATOM     24  O3  IDS d 502     -15.215  54.263 176.045  0.00  0.00    -0.218 OA
ATOM     25  C2  IDS d 502     -13.940  52.255 175.868  0.00  0.00     0.229 C 
ATOM     26  C1  IDS d 502     -13.164  52.608 174.603  0.00  0.00     0.301 C 
ATOM     27  O1  IDS d 502     -12.792  53.958 174.687  0.00  0.00    -0.187 OA
ATOM     28  O5  IDS d 502     -13.912  52.324 173.448  0.00  0.00    -0.316 OA
ATOM     29  C5  IDS d 502     -15.153  52.998 173.365  0.00  0.00     0.234 C 
BRANCH  25  30
ATOM     30  O2  IDS d 502     -14.092  50.862 175.911  0.00  0.00    -0.232 OA
BRANCH  30  31
ATOM     31  S   IDS d 502     -13.695  49.890 177.071  0.00  0.00     0.252 S 
ATOM     32  O3S IDS d 502     -14.480  48.704 176.842  0.00  0.00    -0.572 OA
ATOM     33  O2S IDS d 502     -14.027  50.581 178.295  0.00  0.00    -0.572 OA
ATOM     34  O1S IDS d 502     -12.286  49.637 176.951  0.00  0.00    -0.572 OA
ENDBRANCH  30  31
ENDBRANCH  25  30
BRANCH  29  35
ATOM     35  C6  IDS d 502     -15.778  52.808 171.991  0.00  0.00     0.216 C 
ATOM     36  O61 IDS d 502     -15.229  52.155 171.137  0.00  0.00    -0.646 OA
ATOM     37  O62 IDS d 502     -16.853  53.306 171.718  0.00  0.00    -0.646 OA
ENDBRANCH  29  35
ENDBRANCH  21  22
ENDBRANCH  13  21
BRANCH  15  38
ATOM     38  C6  SGN d 503     -17.665  48.940 171.276  0.00  0.00     0.198 C 
BRANCH  38  39
ATOM     39  O6  SGN d 503     -19.049  49.134 171.083  0.00  0.00    -0.235 OA
BRANCH  39  40
ATOM     40  S2  SGN d 503     -19.998  48.175 170.317  0.00  0.00     0.252 S 
ATOM     41  O4S SGN d 503     -19.341  47.754 169.125  0.00  0.00    -0.572 OA
ATOM     42  O5S SGN d 503     -20.283  47.054 171.208  0.00  0.00    -0.572 OA
ATOM     43  O6S SGN d 503     -21.108  48.984 169.999  0.00  0.00    -0.572 OA
ENDBRANCH  39  40
ENDBRANCH  38  39
ENDBRANCH  15  38
ENDBRANCH   8   9
ENDBRANCH   5   8
BRANCH   1  44
ATOM     44  O2  IDS d 504     -14.142  45.779 175.080  0.00  0.00    -0.233 OA
BRANCH  44  45
ATOM     45  S   IDS d 504     -13.920  45.018 176.400  0.00  0.00     0.252 S 
ATOM     46  O3S IDS d 504     -12.905  45.761 177.047  0.00  0.00    -0.572 OA
ATOM     47  O2S IDS d 504     -13.563  43.670 176.068  0.00  0.00    -0.572 OA
ATOM     48  O1S IDS d 504     -15.149  45.075 177.104  0.00  0.00    -0.572 OA
ENDBRANCH  44  45
ENDBRANCH   1  44
BRANCH   4  49
ATOM     49  C6  IDS d 504     -14.159  47.939 170.652  0.00  0.00     0.216 C 
ATOM     50  O62 IDS d 504     -13.848  49.104 170.909  0.00  0.00    -0.646 OA
ATOM     51  O61 IDS d 504     -13.963  47.531 169.514  0.00  0.00    -0.646 OA
ENDBRANCH   4  49
BRANCH   7  52
ATOM     52  O4  IDS d 504     -12.787  45.918 172.481  0.00  0.00    -0.326 OA
BRANCH  52  53
ATOM     53  C1  SGN d 505     -11.754  45.343 171.728  0.00  0.00     0.263 C 
ATOM     54  C2  SGN d 505     -10.636  44.832 172.616  0.00  0.00     0.207 C 
ATOM     55  C3  SGN d 505      -9.923  46.000 173.324  0.00  0.00     0.210 C 
ATOM     56  C4  SGN d 505      -9.417  46.935 172.188  0.00  0.00     0.180 C 
ATOM     57  O3  SGN d 505      -8.828  45.477 174.065  0.00  0.00    -0.218 OA
ATOM     58  C5  SGN d 505     -10.624  47.370 171.423  0.00  0.00     0.179 C 
ATOM     59  O5  SGN d 505     -11.238  46.273 170.818  0.00  0.00    -0.327 OA
BRANCH  54  60
ATOM     60  N   SGN d 505     -11.165  43.776 173.510  0.00  0.00    -0.162 NA
BRANCH  60  61
ATOM     61  S1  SGN d 505     -10.668  42.201 173.226  0.00  0.00     0.227 S 
ATOM     62  O3S SGN d 505     -11.838  41.438 172.969  0.00  0.00    -0.577 OA
ATOM     63  O1S SGN d 505      -9.751  42.226 172.106  0.00  0.00    -0.577 OA
ATOM     64  O2S SGN d 505     -10.029  41.786 174.453  0.00  0.00    -0.577 OA
ENDBRANCH  60  61
ENDBRANCH  54  60
BRANCH  56  65
ATOM     65  O4  SGN d 505      -8.782  48.123 172.613  0.00  0.00    -0.326 OA
BRANCH  65  66
ATOM     66  C1  IDS d 506      -7.406  48.271 172.691  0.00  0.00     0.269 C 
ATOM     67  C2  IDS d 506      -7.087  49.539 173.497  0.00  0.00     0.226 C 
ATOM     68  C3  IDS d 506      -5.607  49.995 173.367  0.00  0.00     0.219 C 
ATOM     69  O3  IDS d 506      -4.822  49.251 174.295  0.00  0.00    -0.218 OA
ATOM     70  C4  IDS d 506      -5.018  49.796 171.955  0.00  0.00     0.223 C 
ATOM     71  O4  IDS d 506      -5.437  50.887 171.169  0.00  0.00    -0.217 OA
ATOM     72  C5  IDS d 506      -5.522  48.488 171.336  0.00  0.00     0.237 C 
ATOM     73  O5  IDS d 506      -6.910  48.439 171.387  0.00  0.00    -0.318 OA
BRANCH  67  74
ATOM     74  O2  IDS d 506      -7.888  50.615 173.047  0.00  0.00    -0.233 OA
BRANCH  74  75
ATOM     75  S   IDS d 506      -8.847  51.551 173.900  0.00  0.00     0.252 S 
ATOM     76  O1S IDS d 506      -7.972  52.334 174.717  0.00  0.00    -0.572 OA
ATOM     77  O2S IDS d 506      -9.585  52.381 172.990  0.00  0.00    -0.572 OA
ATOM     78  O3S IDS d 506      -9.687  50.653 174.663  0.00  0.00    -0.572 OA
ENDBRANCH  74  75
ENDBRANCH  67  74
BRANCH  72  79
ATOM     79  C6  IDS d 506      -5.060  48.183 169.923  0.00  0.00     0.217 C 
ATOM     80  O61 IDS d 506      -3.866  48.191 169.655  0.00  0.00    -0.646 OA
ATOM     81  O62 IDS d 506      -5.846  47.941 169.024  0.00  0.00    -0.646 OA
ENDBRANCH  72  79
ENDBRANCH  65  66
ENDBRANCH  56  65
BRANCH  58  82
ATOM     82  C6  SGN d 505     -10.300  48.328 170.323  0.00  0.00     0.198 C 
BRANCH  82  83
ATOM     83  O6  SGN d 505      -9.938  47.534 169.245  0.00  0.00    -0.235 OA
BRANCH  83  84
ATOM     84  S2  SGN d 505      -9.438  47.999 167.885  0.00  0.00     0.252 S 
ATOM     85  O6S SGN d 505     -10.614  48.218 167.054  0.00  0.00    -0.572 OA
ATOM     86  O4S SGN d 505      -8.712  49.218 168.158  0.00  0.00    -0.572 OA
ATOM     87  O5S SGN d 505      -8.621  46.910 167.409  0.00  0.00    -0.572 OA
ENDBRANCH  83  84
ENDBRANCH  82  83
ENDBRANCH  58  82
ENDBRANCH  52  53
ENDBRANCH   7  52
TORSDOF 27

ENDMDL
MODEL 43
REMARK VINA RESULT:       4.7      2.176      2.832
REMARK  27 active torsions:
REMARK  status: ('A' for Active; 'I' for Inactive)
REMARK    1  A    between atoms: C2_1  and  O2_78 
REMARK    2  A    between atoms: C1_3  and  O4_50 
REMARK    3  A    between atoms: O4_5  and  C4_58 
REMARK    4  A    between atoms: O4_5  and  C1_27 
REMARK    5  A    between atoms: C2_6  and  N_39 
REMARK    6  A    between atoms: S1_9  and  N_39 
REMARK    7  A    between atoms: C6_10  and  C5_52 
REMARK    8  A    between atoms: C2_12  and  N_73 
REMARK    9  A    between atoms: C2_19  and  O2_24 
REMARK   10  A    between atoms: C2_21  and  O2_44 
REMARK   11  A    between atoms: S2_23  and  O6_65 
REMARK   12  A    between atoms: O2_24  and  S_54 
REMARK   13  A    between atoms: C1_28  and  O4_60 
REMARK   14  A    between atoms: C5_29  and  C6_38 
REMARK   15  A    between atoms: C5_30  and  C6_33 
REMARK   16  A    between atoms: S1_34  and  N_73 
REMARK   17  A    between atoms: C5_41  and  C6_46 
REMARK   18  A    between atoms: S_43  and  O2_44 
REMARK   19  A    between atoms: C6_46  and  O6_72 
REMARK   20  A    between atoms: O4_50  and  C4_71 
REMARK   21  A    between atoms: C1_56  and  O4_64 
REMARK   22  A    between atoms: O4_60  and  C4_83 
REMARK   23  A    between atoms: C4_61  and  O4_64 
REMARK   24  A    between atoms: S2_63  and  O6_72 
REMARK   25  A    between atoms: O6_65  and  C6_67 
REMARK   26  A    between atoms: C6_67  and  C5_75 
REMARK   27  A    between atoms: S_76  and  O2_78 
ROOT
ATOM      1  C2  IDS d 504     -14.367  50.720 176.473  0.00  0.00     0.226 C 
ATOM      2  O3  IDS d 504     -14.468  49.316 178.481  0.00  0.00    -0.218 OA
ATOM      3  O5  IDS d 504     -15.167  48.911 175.050  0.00  0.00    -0.318 OA
ATOM      4  C5  IDS d 504     -14.723  47.912 175.939  0.00  0.00     0.234 C 
ATOM      5  C1  IDS d 504     -15.525  50.145 175.682  0.00  0.00     0.269 C 
ATOM      6  C3  IDS d 504     -13.648  49.635 177.364  0.00  0.00     0.216 C 
ATOM      7  C4  IDS d 504     -13.414  48.342 176.598  0.00  0.00     0.189 C 
ENDROOT
BRANCH   5   8
ATOM      8  O4  SGN d 503     -16.620  50.009 176.541  0.00  0.00    -0.326 OA
BRANCH   8   9
ATOM      9  C4  SGN d 503     -17.849  49.984 175.892  0.00  0.00     0.180 C 
ATOM     10  C3  SGN d 503     -17.725  50.770 174.589  0.00  0.00     0.210 C 
ATOM     11  C2  SGN d 503     -18.992  50.558 173.781  0.00  0.00     0.207 C 
ATOM     12  O3  SGN d 503     -17.584  52.140 174.914  0.00  0.00    -0.218 OA
ATOM     13  C1  SGN d 503     -19.300  49.066 173.592  0.00  0.00     0.263 C 
ATOM     14  O5  SGN d 503     -19.395  48.443 174.849  0.00  0.00    -0.327 OA
ATOM     15  C5  SGN d 503     -18.220  48.520 175.594  0.00  0.00     0.179 C 
BRANCH  11  16
ATOM     16  N   SGN d 503     -18.918  51.229 172.494  0.00  0.00    -0.162 NA
BRANCH  16  17
ATOM     17  S1  SGN d 503     -19.923  52.483 172.240  0.00  0.00     0.227 S 
ATOM     18  O1S SGN d 503     -20.791  52.548 173.400  0.00  0.00    -0.577 OA
ATOM     19  O2S SGN d 503     -19.115  53.692 172.090  0.00  0.00    -0.577 OA
ATOM     20  O3S SGN d 503     -20.631  52.101 171.039  0.00  0.00    -0.577 OA
ENDBRANCH  16  17
ENDBRANCH  11  16
BRANCH  13  21
ATOM     21  O4  IDS d 502     -18.331  48.452 172.787  0.00  0.00    -0.326 OA
BRANCH  21  22
ATOM     22  C4  IDS d 502     -18.844  47.630 171.771  0.00  0.00     0.189 C 
ATOM     23  C3  IDS d 502     -18.368  48.144 170.399  0.00  0.00     0.216 C 
ATOM     24  O3  IDS d 502     -19.050  47.437 169.382  0.00  0.00    -0.218 OA
ATOM     25  C2  IDS d 502     -16.866  47.909 170.217  0.00  0.00     0.229 C 
ATOM     26  C1  IDS d 502     -16.465  46.483 170.581  0.00  0.00     0.301 C 
ATOM     27  O1  IDS d 502     -16.923  45.633 169.564  0.00  0.00    -0.187 OA
ATOM     28  O5  IDS d 502     -16.955  46.122 171.848  0.00  0.00    -0.316 OA
ATOM     29  C5  IDS d 502     -18.360  46.197 171.984  0.00  0.00     0.234 C 
BRANCH  25  30
ATOM     30  O2  IDS d 502     -16.199  48.784 171.087  0.00  0.00    -0.232 OA
BRANCH  30  31
ATOM     31  S   IDS d 502     -14.809  49.470 170.875  0.00  0.00     0.252 S 
ATOM     32  O3S IDS d 502     -15.099  50.879 170.821  0.00  0.00    -0.572 OA
ATOM     33  O2S IDS d 502     -14.289  48.934 169.638  0.00  0.00    -0.572 OA
ATOM     34  O1S IDS d 502     -13.990  49.130 172.005  0.00  0.00    -0.572 OA
ENDBRANCH  30  31
ENDBRANCH  25  30
BRANCH  29  35
ATOM     35  C6  IDS d 502     -18.807  45.576 173.300  0.00  0.00     0.216 C 
ATOM     36  O61 IDS d 502     -19.977  45.418 173.553  0.00  0.00    -0.646 OA
ATOM     37  O62 IDS d 502     -17.996  45.216 174.131  0.00  0.00    -0.646 OA
ENDBRANCH  29  35
ENDBRANCH  21  22
ENDBRANCH  13  21
BRANCH  15  38
ATOM     38  C6  SGN d 503     -18.491  47.686 176.817  0.00  0.00     0.198 C 
BRANCH  38  39
ATOM     39  O6  SGN d 503     -19.578  46.838 176.520  0.00  0.00    -0.235 OA
BRANCH  39  40
ATOM     40  S2  SGN d 503     -20.996  46.936 177.142  0.00  0.00     0.252 S 
ATOM     41  O4S SGN d 503     -21.132  48.219 177.744  0.00  0.00    -0.572 OA
ATOM     42  O5S SGN d 503     -21.954  46.738 176.057  0.00  0.00    -0.572 OA
ATOM     43  O6S SGN d 503     -20.999  45.932 178.133  0.00  0.00    -0.572 OA
ENDBRANCH  39  40
ENDBRANCH  38  39
ENDBRANCH  15  38
ENDBRANCH   8   9
ENDBRANCH   5   8
BRANCH   1  44
ATOM     44  O2  IDS d 504     -13.443  51.303 175.556  0.00  0.00    -0.233 OA
BRANCH  44  45
ATOM     45  S   IDS d 504     -13.613  52.634 174.802  0.00  0.00     0.252 S 
ATOM     46  O3S IDS d 504     -14.379  53.426 175.690  0.00  0.00    -0.572 OA
ATOM     47  O2S IDS d 504     -14.248  52.346 173.550  0.00  0.00    -0.572 OA
ATOM     48  O1S IDS d 504     -12.309  53.158 174.617  0.00  0.00    -0.572 OA
ENDBRANCH  44  45
ENDBRANCH   1  44
BRANCH   4  49
ATOM     49  C6  IDS d 504     -14.681  46.545 175.235  0.00  0.00     0.216 C 
ATOM     50  O62 IDS d 504     -14.345  46.449 174.052  0.00  0.00    -0.646 OA
ATOM     51  O61 IDS d 504     -14.997  45.522 175.827  0.00  0.00    -0.646 OA
ENDBRANCH   4  49
BRANCH   7  52
ATOM     52  O4  IDS d 504     -12.416  48.556 175.610  0.00  0.00    -0.326 OA
BRANCH  52  53
ATOM     53  C1  SGN d 505     -11.118  48.244 176.038  0.00  0.00     0.263 C 
ATOM     54  C2  SGN d 505     -10.070  48.925 175.180  0.00  0.00     0.207 C 
ATOM     55  C3  SGN d 505     -10.092  48.365 173.744  0.00  0.00     0.210 C 
ATOM     56  C4  SGN d 505      -9.859  46.833 173.887  0.00  0.00     0.180 C 
ATOM     57  O3  SGN d 505      -9.032  48.965 173.010  0.00  0.00    -0.218 OA
ATOM     58  C5  SGN d 505     -10.974  46.308 174.732  0.00  0.00     0.179 C 
ATOM     59  O5  SGN d 505     -10.915  46.859 176.011  0.00  0.00    -0.327 OA
BRANCH  54  60
ATOM     60  N   SGN d 505     -10.226  50.394 175.290  0.00  0.00    -0.162 NA
BRANCH  60  61
ATOM     61  S1  SGN d 505      -8.853  51.295 175.622  0.00  0.00     0.227 S 
ATOM     62  O3S SGN d 505      -7.907  50.410 176.202  0.00  0.00    -0.577 OA
ATOM     63  O1S SGN d 505      -8.397  51.873 174.376  0.00  0.00    -0.577 OA
ATOM     64  O2S SGN d 505      -9.285  52.297 176.569  0.00  0.00    -0.577 OA
ENDBRANCH  60  61
ENDBRANCH  54  60
BRANCH  56  65
ATOM     65  O4  SGN d 505      -9.907  46.095 172.684  0.00  0.00    -0.326 OA
BRANCH  65  66
ATOM     66  C1  IDS d 506      -9.084  46.346 171.596  0.00  0.00     0.269 C 
ATOM     67  C2  IDS d 506      -9.396  45.326 170.491  0.00  0.00     0.226 C 
ATOM     68  C3  IDS d 506      -8.322  45.288 169.369  0.00  0.00     0.219 C 
ATOM     69  O3  IDS d 506      -8.604  46.330 168.438  0.00  0.00    -0.218 OA
ATOM     70  C4  IDS d 506      -6.878  45.468 169.885  0.00  0.00     0.223 C 
ATOM     71  O4  IDS d 506      -6.445  44.215 170.361  0.00  0.00    -0.217 OA
ATOM     72  C5  IDS d 506      -6.831  46.497 171.019  0.00  0.00     0.237 C 
ATOM     73  O5  IDS d 506      -7.752  46.163 172.004  0.00  0.00    -0.318 OA
BRANCH  67  74
ATOM     74  O2  IDS d 506      -9.464  44.023 171.037  0.00  0.00    -0.233 OA
BRANCH  74  75
ATOM     75  S   IDS d 506     -10.587  42.921 170.816  0.00  0.00     0.252 S 
ATOM     76  O1S IDS d 506      -9.874  41.692 170.649  0.00  0.00    -0.572 OA
ATOM     77  O2S IDS d 506     -11.412  42.884 171.990  0.00  0.00    -0.572 OA
ATOM     78  O3S IDS d 506     -11.303  43.331 169.628  0.00  0.00    -0.572 OA
ENDBRANCH  74  75
ENDBRANCH  67  74
BRANCH  72  79
ATOM     79  C6  IDS d 506      -5.477  46.742 171.658  0.00  0.00     0.217 C 
ATOM     80  O61 IDS d 506      -5.196  46.204 172.720  0.00  0.00    -0.646 OA
ATOM     81  O62 IDS d 506      -4.648  47.479 171.153  0.00  0.00    -0.646 OA
ENDBRANCH  72  79
ENDBRANCH  65  66
ENDBRANCH  56  65
BRANCH  58  82
ATOM     82  C6  SGN d 505     -10.917  44.826 174.911  0.00  0.00     0.198 C 
BRANCH  82  83
ATOM     83  O6  SGN d 505     -10.918  44.626 176.284  0.00  0.00    -0.235 OA
BRANCH  83  84
ATOM     84  S2  SGN d 505     -11.902  43.794 177.093  0.00  0.00     0.252 S 
ATOM     85  O6S SGN d 505     -12.751  43.095 176.138  0.00  0.00    -0.572 OA
ATOM     86  O4S SGN d 505     -11.075  42.896 177.866  0.00  0.00    -0.572 OA
ATOM     87  O5S SGN d 505     -12.631  44.759 177.878  0.00  0.00    -0.572 OA
ENDBRANCH  83  84
ENDBRANCH  82  83
ENDBRANCH  58  82
ENDBRANCH  52  53
ENDBRANCH   7  52
TORSDOF 27

ENDMDL
MODEL 44
REMARK VINA RESULT:       4.7      4.079      9.497
REMARK  27 active torsions:
REMARK  status: ('A' for Active; 'I' for Inactive)
REMARK    1  A    between atoms: C2_1  and  O2_78 
REMARK    2  A    between atoms: C1_3  and  O4_50 
REMARK    3  A    between atoms: O4_5  and  C4_58 
REMARK    4  A    between atoms: O4_5  and  C1_27 
REMARK    5  A    between atoms: C2_6  and  N_39 
REMARK    6  A    between atoms: S1_9  and  N_39 
REMARK    7  A    between atoms: C6_10  and  C5_52 
REMARK    8  A    between atoms: C2_12  and  N_73 
REMARK    9  A    between atoms: C2_19  and  O2_24 
REMARK   10  A    between atoms: C2_21  and  O2_44 
REMARK   11  A    between atoms: S2_23  and  O6_65 
REMARK   12  A    between atoms: O2_24  and  S_54 
REMARK   13  A    between atoms: C1_28  and  O4_60 
REMARK   14  A    between atoms: C5_29  and  C6_38 
REMARK   15  A    between atoms: C5_30  and  C6_33 
REMARK   16  A    between atoms: S1_34  and  N_73 
REMARK   17  A    between atoms: C5_41  and  C6_46 
REMARK   18  A    between atoms: S_43  and  O2_44 
REMARK   19  A    between atoms: C6_46  and  O6_72 
REMARK   20  A    between atoms: O4_50  and  C4_71 
REMARK   21  A    between atoms: C1_56  and  O4_64 
REMARK   22  A    between atoms: O4_60  and  C4_83 
REMARK   23  A    between atoms: C4_61  and  O4_64 
REMARK   24  A    between atoms: S2_63  and  O6_72 
REMARK   25  A    between atoms: O6_65  and  C6_67 
REMARK   26  A    between atoms: C6_67  and  C5_75 
REMARK   27  A    between atoms: S_76  and  O2_78 
ROOT
ATOM      1  C2  IDS d 504     -19.267  47.901 173.892  0.00  0.00     0.226 C 
ATOM      2  O3  IDS d 504     -20.081  48.067 176.199  0.00  0.00    -0.218 OA
ATOM      3  O5  IDS d 504     -17.041  48.669 174.519  0.00  0.00    -0.318 OA
ATOM      4  C5  IDS d 504     -17.511  49.337 175.668  0.00  0.00     0.234 C 
ATOM      5  C1  IDS d 504     -17.819  47.528 174.142  0.00  0.00     0.269 C 
ATOM      6  C3  IDS d 504     -19.853  48.832 175.022  0.00  0.00     0.216 C 
ATOM      7  C4  IDS d 504     -18.885  49.945 175.393  0.00  0.00     0.189 C 
ENDROOT
BRANCH   5   8
ATOM      8  O4  SGN d 503     -17.786  46.514 175.105  0.00  0.00    -0.326 OA
BRANCH   8   9
ATOM      9  C4  SGN d 503     -16.831  45.534 174.862  0.00  0.00     0.180 C 
ATOM     10  C3  SGN d 503     -16.840  45.206 173.371  0.00  0.00     0.210 C 
ATOM     11  C2  SGN d 503     -15.656  44.304 173.073  0.00  0.00     0.207 C 
ATOM     12  O3  SGN d 503     -18.047  44.530 173.077  0.00  0.00    -0.218 OA
ATOM     13  C1  SGN d 503     -14.340  44.912 173.579  0.00  0.00     0.263 C 
ATOM     14  O5  SGN d 503     -14.442  45.171 174.957  0.00  0.00    -0.327 OA
ATOM     15  C5  SGN d 503     -15.452  46.075 175.277  0.00  0.00     0.179 C 
BRANCH  11  16
ATOM     16  N   SGN d 503     -15.565  44.003 171.655  0.00  0.00    -0.162 NA
BRANCH  16  17
ATOM     17  S1  SGN d 503     -15.600  42.436 171.215  0.00  0.00     0.227 S 
ATOM     18  O1S SGN d 503     -16.946  42.179 170.741  0.00  0.00    -0.577 OA
ATOM     19  O2S SGN d 503     -14.601  42.235 170.166  0.00  0.00    -0.577 OA
ATOM     20  O3S SGN d 503     -15.304  41.739 172.446  0.00  0.00    -0.577 OA
ENDBRANCH  16  17
ENDBRANCH  11  16
BRANCH  13  21
ATOM     21  O4  IDS d 502     -14.016  46.072 172.862  0.00  0.00    -0.326 OA
BRANCH  21  22
ATOM     22  C4  IDS d 502     -12.668  46.168 172.478  0.00  0.00     0.189 C 
ATOM     23  C3  IDS d 502     -12.540  45.889 170.969  0.00  0.00     0.216 C 
ATOM     24  O3  IDS d 502     -11.169  45.790 170.635  0.00  0.00    -0.218 OA
ATOM     25  C2  IDS d 502     -13.147  47.029 170.146  0.00  0.00     0.229 C 
ATOM     26  C1  IDS d 502     -12.666  48.395 170.625  0.00  0.00     0.301 C 
ATOM     27  O1  IDS d 502     -11.331  48.548 170.219  0.00  0.00    -0.187 OA
ATOM     28  O5  IDS d 502     -12.828  48.536 172.014  0.00  0.00    -0.316 OA
ATOM     29  C5  IDS d 502     -12.150  47.570 172.792  0.00  0.00     0.234 C 
BRANCH  25  30
ATOM     30  O2  IDS d 502     -14.538  46.973 170.320  0.00  0.00    -0.232 OA
BRANCH  30  31
ATOM     31  S   IDS d 502     -15.639  47.692 169.473  0.00  0.00     0.252 S 
ATOM     32  O3S IDS d 502     -15.073  47.802 168.153  0.00  0.00    -0.572 OA
ATOM     33  O2S IDS d 502     -15.865  48.964 170.118  0.00  0.00    -0.572 OA
ATOM     34  O1S IDS d 502     -16.806  46.855 169.493  0.00  0.00    -0.572 OA
ENDBRANCH  30  31
ENDBRANCH  25  30
BRANCH  29  35
ATOM     35  C6  IDS d 502     -12.197  47.938 174.268  0.00  0.00     0.216 C 
ATOM     36  O61 IDS d 502     -12.620  49.007 174.634  0.00  0.00    -0.646 OA
ATOM     37  O62 IDS d 502     -11.814  47.159 175.120  0.00  0.00    -0.646 OA
ENDBRANCH  29  35
ENDBRANCH  21  22
ENDBRANCH  13  21
BRANCH  15  38
ATOM     38  C6  SGN d 503     -15.295  46.311 176.755  0.00  0.00     0.198 C 
BRANCH  38  39
ATOM     39  O6  SGN d 503     -14.730  47.593 176.924  0.00  0.00    -0.235 OA
BRANCH  39  40
ATOM     40  S2  SGN d 503     -13.888  48.056 178.142  0.00  0.00     0.252 S 
ATOM     41  O4S SGN d 503     -13.338  49.335 177.846  0.00  0.00    -0.572 OA
ATOM     42  O5S SGN d 503     -14.788  48.103 179.291  0.00  0.00    -0.572 OA
ATOM     43  O6S SGN d 503     -12.861  47.093 178.225  0.00  0.00    -0.572 OA
ENDBRANCH  39  40
ENDBRANCH  38  39
ENDBRANCH  15  38
ENDBRANCH   8   9
ENDBRANCH   5   8
BRANCH   1  44
ATOM     44  O2  IDS d 504     -19.351  48.545 172.622  0.00  0.00    -0.233 OA
BRANCH  44  45
ATOM     45  S   IDS d 504     -19.982  47.972 171.340  0.00  0.00     0.252 S 
ATOM     46  O3S IDS d 504     -21.373  48.063 171.584  0.00  0.00    -0.572 OA
ATOM     47  O2S IDS d 504     -19.485  46.638 171.170  0.00  0.00    -0.572 OA
ATOM     48  O1S IDS d 504     -19.575  48.820 170.280  0.00  0.00    -0.572 OA
ENDBRANCH  44  45
ENDBRANCH   1  44
BRANCH   4  49
ATOM     49  C6  IDS d 504     -16.452  50.324 176.186  0.00  0.00     0.216 C 
ATOM     50  O62 IDS d 504     -16.444  50.689 177.364  0.00  0.00    -0.646 OA
ATOM     51  O61 IDS d 504     -15.601  50.786 175.437  0.00  0.00    -0.646 OA
ENDBRANCH   4  49
BRANCH   7  52
ATOM     52  O4  IDS d 504     -18.804  50.873 174.321  0.00  0.00    -0.326 OA
BRANCH  52  53
ATOM     53  C1  SGN d 505     -19.747  51.908 174.394  0.00  0.00     0.263 C 
ATOM     54  C2  SGN d 505     -20.036  52.495 173.026  0.00  0.00     0.207 C 
ATOM     55  C3  SGN d 505     -18.793  53.215 172.467  0.00  0.00     0.210 C 
ATOM     56  C4  SGN d 505     -18.420  54.294 173.526  0.00  0.00     0.180 C 
ATOM     57  O3  SGN d 505     -19.143  53.828 171.233  0.00  0.00    -0.218 OA
ATOM     58  C5  SGN d 505     -18.145  53.564 174.800  0.00  0.00     0.179 C 
ATOM     59  O5  SGN d 505     -19.297  52.919 175.250  0.00  0.00    -0.327 OA
BRANCH  54  60
ATOM     60  N   SGN d 505     -20.606  51.444 172.152  0.00  0.00    -0.162 NA
BRANCH  60  61
ATOM     61  S1  SGN d 505     -22.124  51.720 171.499  0.00  0.00     0.227 S 
ATOM     62  O3S SGN d 505     -22.406  53.100 171.676  0.00  0.00    -0.577 OA
ATOM     63  O1S SGN d 505     -22.081  51.324 170.107  0.00  0.00    -0.577 OA
ATOM     64  O2S SGN d 505     -23.019  50.896 172.279  0.00  0.00    -0.577 OA
ENDBRANCH  60  61
ENDBRANCH  54  60
BRANCH  56  65
ATOM     65  O4  SGN d 505     -17.254  55.041 173.250  0.00  0.00    -0.326 OA
BRANCH  65  66
ATOM     66  C1  IDS d 506     -16.974  55.596 172.011  0.00  0.00     0.269 C 
ATOM     67  C2  IDS d 506     -15.587  56.252 172.062  0.00  0.00     0.226 C 
ATOM     68  C3  IDS d 506     -15.305  57.191 170.856  0.00  0.00     0.219 C 
ATOM     69  O3  IDS d 506     -14.851  56.398 169.762  0.00  0.00    -0.218 OA
ATOM     70  C4  IDS d 506     -16.538  57.999 170.397  0.00  0.00     0.223 C 
ATOM     71  O4  IDS d 506     -16.651  59.111 171.254  0.00  0.00    -0.217 OA
ATOM     72  C5  IDS d 506     -17.808  57.147 170.484  0.00  0.00     0.237 C 
ATOM     73  O5  IDS d 506     -17.927  56.596 171.754  0.00  0.00    -0.318 OA
BRANCH  67  74
ATOM     74  O2  IDS d 506     -15.464  57.039 173.230  0.00  0.00    -0.233 OA
BRANCH  74  75
ATOM     75  S   IDS d 506     -14.198  57.853 173.740  0.00  0.00     0.252 S 
ATOM     76  O1S IDS d 506     -13.183  57.614 172.760  0.00  0.00    -0.572 OA
ATOM     77  O2S IDS d 506     -14.551  59.244 173.788  0.00  0.00    -0.572 OA
ATOM     78  O3S IDS d 506     -13.878  57.299 175.038  0.00  0.00    -0.572 OA
ENDBRANCH  74  75
ENDBRANCH  67  74
BRANCH  72  79
ATOM     79  C6  IDS d 506     -19.110  57.830 170.108  0.00  0.00     0.217 C 
ATOM     80  O61 IDS d 506     -19.203  58.427 169.044  0.00  0.00    -0.646 OA
ATOM     81  O62 IDS d 506     -20.082  57.820 170.844  0.00  0.00    -0.646 OA
ENDBRANCH  72  79
ENDBRANCH  65  66
ENDBRANCH  56  65
BRANCH  58  82
ATOM     82  C6  SGN d 505     -17.714  54.472 175.906  0.00  0.00     0.198 C 
BRANCH  82  83
ATOM     83  O6  SGN d 505     -16.671  53.809 176.535  0.00  0.00    -0.235 OA
BRANCH  83  84
ATOM     84  S2  SGN d 505     -15.209  54.229 176.586  0.00  0.00     0.252 S 
ATOM     85  O6S SGN d 505     -14.714  54.207 175.216  0.00  0.00    -0.572 OA
ATOM     86  O4S SGN d 505     -15.229  55.560 177.150  0.00  0.00    -0.572 OA
ATOM     87  O5S SGN d 505     -14.576  53.236 177.418  0.00  0.00    -0.572 OA
ENDBRANCH  83  84
ENDBRANCH  82  83
ENDBRANCH  58  82
ENDBRANCH  52  53
ENDBRANCH   7  52
TORSDOF 27

ENDMDL
MODEL 45
REMARK VINA RESULT:       4.7      4.553     11.187
REMARK  27 active torsions:
REMARK  status: ('A' for Active; 'I' for Inactive)
REMARK    1  A    between atoms: C2_1  and  O2_78 
REMARK    2  A    between atoms: C1_3  and  O4_50 
REMARK    3  A    between atoms: O4_5  and  C4_58 
REMARK    4  A    between atoms: O4_5  and  C1_27 
REMARK    5  A    between atoms: C2_6  and  N_39 
REMARK    6  A    between atoms: S1_9  and  N_39 
REMARK    7  A    between atoms: C6_10  and  C5_52 
REMARK    8  A    between atoms: C2_12  and  N_73 
REMARK    9  A    between atoms: C2_19  and  O2_24 
REMARK   10  A    between atoms: C2_21  and  O2_44 
REMARK   11  A    between atoms: S2_23  and  O6_65 
REMARK   12  A    between atoms: O2_24  and  S_54 
REMARK   13  A    between atoms: C1_28  and  O4_60 
REMARK   14  A    between atoms: C5_29  and  C6_38 
REMARK   15  A    between atoms: C5_30  and  C6_33 
REMARK   16  A    between atoms: S1_34  and  N_73 
REMARK   17  A    between atoms: C5_41  and  C6_46 
REMARK   18  A    between atoms: S_43  and  O2_44 
REMARK   19  A    between atoms: C6_46  and  O6_72 
REMARK   20  A    between atoms: O4_50  and  C4_71 
REMARK   21  A    between atoms: C1_56  and  O4_64 
REMARK   22  A    between atoms: O4_60  and  C4_83 
REMARK   23  A    between atoms: C4_61  and  O4_64 
REMARK   24  A    between atoms: S2_63  and  O6_72 
REMARK   25  A    between atoms: O6_65  and  C6_67 
REMARK   26  A    between atoms: C6_67  and  C5_75 
REMARK   27  A    between atoms: S_76  and  O2_78 
ROOT
ATOM      1  C2  IDS d 504     -15.188  51.176 174.041  0.00  0.00     0.226 C 
ATOM      2  O3  IDS d 504     -15.126  51.692 171.644  0.00  0.00    -0.218 OA
ATOM      3  O5  IDS d 504     -17.348  50.067 173.845  0.00  0.00    -0.318 OA
ATOM      4  C5  IDS d 504     -17.694  50.777 172.677  0.00  0.00     0.234 C 
ATOM      5  C1  IDS d 504     -15.942  49.862 174.015  0.00  0.00     0.269 C 
ATOM      6  C3  IDS d 504     -15.640  52.153 172.887  0.00  0.00     0.216 C 
ATOM      7  C4  IDS d 504     -17.155  52.204 172.753  0.00  0.00     0.189 C 
ENDROOT
BRANCH   5   8
ATOM      8  O4  SGN d 503     -15.392  49.059 173.011  0.00  0.00    -0.326 OA
BRANCH   8   9
ATOM      9  C4  SGN d 503     -15.637  47.700 173.174  0.00  0.00     0.180 C 
ATOM     10  C3  SGN d 503     -16.146  47.467 174.595  0.00  0.00     0.210 C 
ATOM     11  C2  SGN d 503     -16.620  46.029 174.703  0.00  0.00     0.207 C 
ATOM     12  O3  SGN d 503     -15.072  47.689 175.489  0.00  0.00    -0.218 OA
ATOM     13  C1  SGN d 503     -17.634  45.684 173.602  0.00  0.00     0.263 C 
ATOM     14  O5  SGN d 503     -17.062  45.932 172.342  0.00  0.00    -0.327 OA
ATOM     15  C5  SGN d 503     -16.701  47.265 172.152  0.00  0.00     0.179 C 
BRANCH  11  16
ATOM     16  N   SGN d 503     -17.179  45.753 176.014  0.00  0.00    -0.162 NA
BRANCH  16  17
ATOM     17  S1  SGN d 503     -16.768  44.350 176.728  0.00  0.00     0.227 S 
ATOM     18  O1S SGN d 503     -17.867  44.008 177.611  0.00  0.00    -0.577 OA
ATOM     19  O2S SGN d 503     -16.572  43.346 175.683  0.00  0.00    -0.577 OA
ATOM     20  O3S SGN d 503     -15.562  44.686 177.450  0.00  0.00    -0.577 OA
ENDBRANCH  16  17
ENDBRANCH  11  16
BRANCH  13  21
ATOM     21  O4  IDS d 502     -18.825  46.401 173.776  0.00  0.00    -0.326 OA
BRANCH  21  22
ATOM     22  C4  IDS d 502     -19.990  45.616 173.773  0.00  0.00     0.189 C 
ATOM     23  C3  IDS d 502     -20.716  45.763 175.124  0.00  0.00     0.216 C 
ATOM     24  O3  IDS d 502     -21.769  44.821 175.185  0.00  0.00    -0.218 OA
ATOM     25  C2  IDS d 502     -21.322  47.162 175.270  0.00  0.00     0.229 C 
ATOM     26  C1  IDS d 502     -22.109  47.574 174.031  0.00  0.00     0.301 C 
ATOM     27  O1  IDS d 502     -23.305  46.841 174.016  0.00  0.00    -0.187 OA
ATOM     28  O5  IDS d 502     -21.351  47.394 172.861  0.00  0.00    -0.316 OA
ATOM     29  C5  IDS d 502     -20.907  46.070 172.640  0.00  0.00     0.234 C 
BRANCH  25  30
ATOM     30  O2  IDS d 502     -20.258  48.063 175.429  0.00  0.00    -0.232 OA
BRANCH  30  31
ATOM     31  S   IDS d 502     -19.928  48.945 176.678  0.00  0.00     0.252 S 
ATOM     32  O3S IDS d 502     -20.340  48.152 177.807  0.00  0.00    -0.572 OA
ATOM     33  O2S IDS d 502     -20.687  50.162 176.512  0.00  0.00    -0.572 OA
ATOM     34  O1S IDS d 502     -18.510  49.179 176.671  0.00  0.00    -0.572 OA
ENDBRANCH  30  31
ENDBRANCH  25  30
BRANCH  29  35
ATOM     35  C6  IDS d 502     -20.299  45.931 171.251  0.00  0.00     0.216 C 
ATOM     36  O61 IDS d 502     -19.996  46.901 170.600  0.00  0.00    -0.646 OA
ATOM     37  O62 IDS d 502     -20.097  44.836 170.763  0.00  0.00    -0.646 OA
ENDBRANCH  29  35
ENDBRANCH  21  22
ENDBRANCH  13  21
BRANCH  15  38
ATOM     38  C6  SGN d 503     -16.251  47.334 170.718  0.00  0.00     0.198 C 
BRANCH  38  39
ATOM     39  O6  SGN d 503     -14.863  47.085 170.695  0.00  0.00    -0.235 OA
BRANCH  39  40
ATOM     40  S2  SGN d 503     -14.175  45.866 170.027  0.00  0.00     0.252 S 
ATOM     41  O4S SGN d 503     -15.051  44.748 170.128  0.00  0.00    -0.572 OA
ATOM     42  O5S SGN d 503     -13.912  46.230 168.638  0.00  0.00    -0.572 OA
ATOM     43  O6S SGN d 503     -13.026  45.653 170.818  0.00  0.00    -0.572 OA
ENDBRANCH  39  40
ENDBRANCH  38  39
ENDBRANCH  15  38
ENDBRANCH   8   9
ENDBRANCH   5   8
BRANCH   1  44
ATOM     44  O2  IDS d 504     -15.389  51.784 175.315  0.00  0.00    -0.233 OA
BRANCH  44  45
ATOM     45  S   IDS d 504     -14.671  51.424 176.629  0.00  0.00     0.252 S 
ATOM     46  O3S IDS d 504     -15.614  50.623 177.316  0.00  0.00    -0.572 OA
ATOM     47  O2S IDS d 504     -14.330  52.652 177.286  0.00  0.00    -0.572 OA
ATOM     48  O1S IDS d 504     -13.516  50.688 176.265  0.00  0.00    -0.572 OA
ENDBRANCH  44  45
ENDBRANCH   1  44
BRANCH   4  49
ATOM     49  C6  IDS d 504     -19.203  50.663 172.406  0.00  0.00     0.216 C 
ATOM     50  O62 IDS d 504     -19.639  50.578 171.256  0.00  0.00    -0.646 OA
ATOM     51  O61 IDS d 504     -20.011  50.672 173.326  0.00  0.00    -0.646 OA
ENDBRANCH   4  49
BRANCH   7  52
ATOM     52  O4  IDS d 504     -17.703  52.874 173.879  0.00  0.00    -0.326 OA
BRANCH  52  53
ATOM     53  C1  SGN d 505     -17.872  54.253 173.691  0.00  0.00     0.263 C 
ATOM     54  C2  SGN d 505     -18.000  54.984 175.013  0.00  0.00     0.207 C 
ATOM     55  C3  SGN d 505     -19.302  54.583 175.735  0.00  0.00     0.210 C 
ATOM     56  C4  SGN d 505     -20.453  54.917 174.741  0.00  0.00     0.180 C 
ATOM     57  O3  SGN d 505     -19.421  55.364 176.917  0.00  0.00    -0.218 OA
ATOM     58  C5  SGN d 505     -20.200  54.111 173.509  0.00  0.00     0.179 C 
ATOM     59  O5  SGN d 505     -19.004  54.504 172.908  0.00  0.00    -0.327 OA
BRANCH  54  60
ATOM     60  N   SGN d 505     -16.758  54.798 175.798  0.00  0.00    -0.162 NA
BRANCH  60  61
ATOM     61  S1  SGN d 505     -15.655  56.060 175.813  0.00  0.00     0.227 S 
ATOM     62  O3S SGN d 505     -14.973  55.999 177.057  0.00  0.00    -0.577 OA
ATOM     63  O1S SGN d 505     -14.776  55.887 174.676  0.00  0.00    -0.577 OA
ATOM     64  O2S SGN d 505     -16.459  57.256 175.712  0.00  0.00    -0.577 OA
ENDBRANCH  60  61
ENDBRANCH  54  60
BRANCH  56  65
ATOM     65  O4  SGN d 505     -21.751  54.565 175.172  0.00  0.00    -0.326 OA
BRANCH  65  66
ATOM     66  C1  IDS d 506     -22.655  55.473 175.703  0.00  0.00     0.269 C 
ATOM     67  C2  IDS d 506     -23.931  54.722 176.110  0.00  0.00     0.226 C 
ATOM     68  C3  IDS d 506     -25.133  55.664 176.399  0.00  0.00     0.219 C 
ATOM     69  O3  IDS d 506     -25.025  56.136 177.740  0.00  0.00    -0.218 OA
ATOM     70  C4  IDS d 506     -25.208  56.882 175.454  0.00  0.00     0.223 C 
ATOM     71  O4  IDS d 506     -25.817  56.449 174.261  0.00  0.00    -0.217 OA
ATOM     72  C5  IDS d 506     -23.807  57.423 175.153  0.00  0.00     0.237 C 
ATOM     73  O5  IDS d 506     -22.987  56.398 174.698  0.00  0.00    -0.318 OA
BRANCH  67  74
ATOM     74  O2  IDS d 506     -24.335  53.850 175.072  0.00  0.00    -0.233 OA
BRANCH  74  75
ATOM     75  S   IDS d 506     -24.682  52.303 175.167  0.00  0.00     0.252 S 
ATOM     76  O1S IDS d 506     -23.416  51.637 175.164  0.00  0.00    -0.572 OA
ATOM     77  O2S IDS d 506     -25.381  52.077 176.400  0.00  0.00    -0.572 OA
ATOM     78  O3S IDS d 506     -25.481  52.013 173.995  0.00  0.00    -0.572 OA
ENDBRANCH  74  75
ENDBRANCH  67  74
BRANCH  72  79
ATOM     79  C6  IDS d 506     -23.723  58.597 174.195  0.00  0.00     0.217 C 
ATOM     80  O61 IDS d 506     -22.883  58.602 173.306  0.00  0.00    -0.646 OA
ATOM     81  O62 IDS d 506     -24.465  59.560 174.286  0.00  0.00    -0.646 OA
ENDBRANCH  72  79
ENDBRANCH  65  66
ENDBRANCH  56  65
BRANCH  58  82
ATOM     82  C6  SGN d 505     -21.265  54.285 172.474  0.00  0.00     0.198 C 
BRANCH  82  83
ATOM     83  O6  SGN d 505     -21.989  53.103 172.497  0.00  0.00    -0.235 OA
BRANCH  83  84
ATOM     84  S2  SGN d 505     -22.810  52.504 171.365  0.00  0.00     0.252 S 
ATOM     85  O6S SGN d 505     -24.050  53.266 171.291  0.00  0.00    -0.572 OA
ATOM     86  O4S SGN d 505     -21.986  52.664 170.188  0.00  0.00    -0.572 OA
ATOM     87  O5S SGN d 505     -23.028  51.134 171.761  0.00  0.00    -0.572 OA
ENDBRANCH  83  84
ENDBRANCH  82  83
ENDBRANCH  58  82
ENDBRANCH  52  53
ENDBRANCH   7  52
TORSDOF 27

ENDMDL
MODEL 46
REMARK VINA RESULT:       4.7      3.523     10.472
REMARK  27 active torsions:
REMARK  status: ('A' for Active; 'I' for Inactive)
REMARK    1  A    between atoms: C2_1  and  O2_78 
REMARK    2  A    between atoms: C1_3  and  O4_50 
REMARK    3  A    between atoms: O4_5  and  C4_58 
REMARK    4  A    between atoms: O4_5  and  C1_27 
REMARK    5  A    between atoms: C2_6  and  N_39 
REMARK    6  A    between atoms: S1_9  and  N_39 
REMARK    7  A    between atoms: C6_10  and  C5_52 
REMARK    8  A    between atoms: C2_12  and  N_73 
REMARK    9  A    between atoms: C2_19  and  O2_24 
REMARK   10  A    between atoms: C2_21  and  O2_44 
REMARK   11  A    between atoms: S2_23  and  O6_65 
REMARK   12  A    between atoms: O2_24  and  S_54 
REMARK   13  A    between atoms: C1_28  and  O4_60 
REMARK   14  A    between atoms: C5_29  and  C6_38 
REMARK   15  A    between atoms: C5_30  and  C6_33 
REMARK   16  A    between atoms: S1_34  and  N_73 
REMARK   17  A    between atoms: C5_41  and  C6_46 
REMARK   18  A    between atoms: S_43  and  O2_44 
REMARK   19  A    between atoms: C6_46  and  O6_72 
REMARK   20  A    between atoms: O4_50  and  C4_71 
REMARK   21  A    between atoms: C1_56  and  O4_64 
REMARK   22  A    between atoms: O4_60  and  C4_83 
REMARK   23  A    between atoms: C4_61  and  O4_64 
REMARK   24  A    between atoms: S2_63  and  O6_72 
REMARK   25  A    between atoms: O6_65  and  C6_67 
REMARK   26  A    between atoms: C6_67  and  C5_75 
REMARK   27  A    between atoms: S_76  and  O2_78 
ROOT
ATOM      1  C2  IDS d 504     -14.594  48.916 176.704  0.00  0.00     0.226 C 
ATOM      2  O3  IDS d 504     -13.903  50.678 178.263  0.00  0.00    -0.218 OA
ATOM      3  O5  IDS d 504     -13.817  50.184 174.774  0.00  0.00    -0.318 OA
ATOM      4  C5  IDS d 504     -13.929  51.419 175.444  0.00  0.00     0.234 C 
ATOM      5  C1  IDS d 504     -13.535  49.073 175.631  0.00  0.00     0.269 C 
ATOM      6  C3  IDS d 504     -14.959  50.285 177.395  0.00  0.00     0.216 C 
ATOM      7  C4  IDS d 504     -15.138  51.401 176.377  0.00  0.00     0.189 C 
ENDROOT
BRANCH   5   8
ATOM      8  O4  SGN d 503     -12.288  49.181 176.256  0.00  0.00    -0.326 OA
BRANCH   8   9
ATOM      9  C4  SGN d 503     -11.260  48.528 175.587  0.00  0.00     0.180 C 
ATOM     10  C3  SGN d 503     -11.739  47.127 175.213  0.00  0.00     0.210 C 
ATOM     11  C2  SGN d 503     -10.706  46.498 174.296  0.00  0.00     0.207 C 
ATOM     12  O3  SGN d 503     -11.853  46.369 176.402  0.00  0.00    -0.218 OA
ATOM     13  C1  SGN d 503     -10.390  47.401 173.094  0.00  0.00     0.263 C 
ATOM     14  O5  SGN d 503      -9.958  48.658 173.552  0.00  0.00    -0.327 OA
ATOM     15  C5  SGN d 503     -10.913  49.326 174.318  0.00  0.00     0.179 C 
BRANCH  11  16
ATOM     16  N   SGN d 503     -11.127  45.183 173.846  0.00  0.00    -0.162 NA
BRANCH  16  17
ATOM     17  S1  SGN d 503     -10.006  44.004 173.811  0.00  0.00     0.227 S 
ATOM     18  O1S SGN d 503      -8.926  44.446 174.673  0.00  0.00    -0.577 OA
ATOM     19  O2S SGN d 503     -10.625  42.771 174.295  0.00  0.00    -0.577 OA
ATOM     20  O3S SGN d 503      -9.619  43.957 172.419  0.00  0.00    -0.577 OA
ENDBRANCH  16  17
ENDBRANCH  11  16
BRANCH  13  21
ATOM     21  O4  IDS d 502     -11.502  47.517 172.250  0.00  0.00    -0.326 OA
BRANCH  21  22
ATOM     22  C4  IDS d 502     -11.431  46.752 171.074  0.00  0.00     0.189 C 
ATOM     23  C3  IDS d 502     -12.806  46.122 170.783  0.00  0.00     0.216 C 
ATOM     24  O3  IDS d 502     -12.672  45.199 169.720  0.00  0.00    -0.218 OA
ATOM     25  C2  IDS d 502     -13.820  47.189 170.361  0.00  0.00     0.229 C 
ATOM     26  C1  IDS d 502     -13.258  48.113 169.285  0.00  0.00     0.301 C 
ATOM     27  O1  IDS d 502     -13.212  47.396 168.080  0.00  0.00    -0.187 OA
ATOM     28  O5  IDS d 502     -12.002  48.626 169.657  0.00  0.00    -0.316 OA
ATOM     29  C5  IDS d 502     -11.014  47.647 169.910  0.00  0.00     0.234 C 
BRANCH  25  30
ATOM     30  O2  IDS d 502     -14.105  47.964 171.494  0.00  0.00    -0.232 OA
BRANCH  30  31
ATOM     31  S   IDS d 502     -15.324  48.918 171.719  0.00  0.00     0.252 S 
ATOM     32  O3S IDS d 502     -15.787  48.615 173.049  0.00  0.00    -0.572 OA
ATOM     33  O2S IDS d 502     -16.277  48.593 170.683  0.00  0.00    -0.572 OA
ATOM     34  O1S IDS d 502     -14.837  50.265 171.611  0.00  0.00    -0.572 OA
ENDBRANCH  30  31
ENDBRANCH  25  30
BRANCH  29  35
ATOM     35  C6  IDS d 502      -9.646  48.295 170.078  0.00  0.00     0.216 C 
ATOM     36  O61 IDS d 502      -9.535  49.476 170.299  0.00  0.00    -0.646 OA
ATOM     37  O62 IDS d 502      -8.628  47.636 169.999  0.00  0.00    -0.646 OA
ENDBRANCH  29  35
ENDBRANCH  21  22
ENDBRANCH  13  21
BRANCH  15  38
ATOM     38  C6  SGN d 503     -10.309  50.679 174.579  0.00  0.00     0.198 C 
BRANCH  38  39
ATOM     39  O6  SGN d 503      -8.953  50.482 174.917  0.00  0.00    -0.235 OA
BRANCH  39  40
ATOM     40  S2  SGN d 503      -8.018  51.544 175.553  0.00  0.00     0.252 S 
ATOM     41  O4S SGN d 503      -8.590  52.829 175.339  0.00  0.00    -0.572 OA
ATOM     42  O5S SGN d 503      -7.910  51.223 176.973  0.00  0.00    -0.572 OA
ATOM     43  O6S SGN d 503      -6.819  51.418 174.819  0.00  0.00    -0.572 OA
ENDBRANCH  39  40
ENDBRANCH  38  39
ENDBRANCH  15  38
ENDBRANCH   8   9
ENDBRANCH   5   8
BRANCH   1  44
ATOM     44  O2  IDS d 504     -15.752  48.333 176.108  0.00  0.00    -0.233 OA
BRANCH  44  45
ATOM     45  S   IDS d 504     -16.236  46.881 176.267  0.00  0.00     0.252 S 
ATOM     46  O3S IDS d 504     -17.249  46.757 175.287  0.00  0.00    -0.572 OA
ATOM     47  O2S IDS d 504     -16.683  46.718 177.620  0.00  0.00    -0.572 OA
ATOM     48  O1S IDS d 504     -15.120  46.054 175.983  0.00  0.00    -0.572 OA
ENDBRANCH  44  45
ENDBRANCH   1  44
BRANCH   4  49
ATOM     49  C6  IDS d 504     -13.899  52.581 174.438  0.00  0.00     0.216 C 
ATOM     50  O62 IDS d 504     -13.311  53.634 174.697  0.00  0.00    -0.646 OA
ATOM     51  O61 IDS d 504     -14.474  52.496 173.360  0.00  0.00    -0.646 OA
ENDBRANCH   4  49
BRANCH   7  52
ATOM     52  O4  IDS d 504     -16.326  51.171 175.633  0.00  0.00    -0.326 OA
BRANCH  52  53
ATOM     53  C1  SGN d 505     -17.483  51.676 176.242  0.00  0.00     0.263 C 
ATOM     54  C2  SGN d 505     -18.738  51.084 175.631  0.00  0.00     0.207 C 
ATOM     55  C3  SGN d 505     -18.902  51.544 174.169  0.00  0.00     0.210 C 
ATOM     56  C4  SGN d 505     -18.925  53.099 174.217  0.00  0.00     0.180 C 
ATOM     57  O3  SGN d 505     -20.137  51.042 173.674  0.00  0.00    -0.218 OA
ATOM     58  C5  SGN d 505     -17.625  53.527 174.818  0.00  0.00     0.179 C 
ATOM     59  O5  SGN d 505     -17.524  53.070 176.131  0.00  0.00    -0.327 OA
BRANCH  54  60
ATOM     60  N   SGN d 505     -18.739  49.617 175.838  0.00  0.00    -0.162 NA
BRANCH  60  61
ATOM     61  S1  SGN d 505     -20.082  48.941 176.579  0.00  0.00     0.227 S 
ATOM     62  O3S SGN d 505     -20.892  48.396 175.548  0.00  0.00    -0.577 OA
ATOM     63  O1S SGN d 505     -19.609  47.943 177.515  0.00  0.00    -0.577 OA
ATOM     64  O2S SGN d 505     -20.740  50.046 177.236  0.00  0.00    -0.577 OA
ENDBRANCH  60  61
ENDBRANCH  54  60
BRANCH  56  65
ATOM     65  O4  SGN d 505     -19.002  53.746 172.964  0.00  0.00    -0.326 OA
BRANCH  65  66
ATOM     66  C1  IDS d 506     -20.061  53.589 172.083  0.00  0.00     0.269 C 
ATOM     67  C2  IDS d 506     -19.832  54.494 170.864  0.00  0.00     0.226 C 
ATOM     68  C3  IDS d 506     -21.097  54.663 169.977  0.00  0.00     0.219 C 
ATOM     69  O3  IDS d 506     -21.179  53.550 169.091  0.00  0.00    -0.218 OA
ATOM     70  C4  IDS d 506     -22.412  54.749 170.780  0.00  0.00     0.223 C 
ATOM     71  O4  IDS d 506     -22.538  56.076 171.236  0.00  0.00    -0.217 OA
ATOM     72  C5  IDS d 506     -22.381  53.792 171.977  0.00  0.00     0.237 C 
ATOM     73  O5  IDS d 506     -21.235  54.009 172.732  0.00  0.00    -0.318 OA
BRANCH  67  74
ATOM     74  O2  IDS d 506     -19.451  55.790 171.285  0.00  0.00    -0.233 OA
BRANCH  74  75
ATOM     75  S   IDS d 506     -18.129  56.593 170.923  0.00  0.00     0.252 S 
ATOM     76  O1S IDS d 506     -18.260  57.847 171.598  0.00  0.00    -0.572 OA
ATOM     77  O2S IDS d 506     -17.006  55.852 171.422  0.00  0.00    -0.572 OA
ATOM     78  O3S IDS d 506     -18.136  56.719 169.481  0.00  0.00    -0.572 OA
ENDBRANCH  74  75
ENDBRANCH  67  74
BRANCH  72  79
ATOM     79  C6  IDS d 506     -23.594  53.804 172.888  0.00  0.00     0.217 C 
ATOM     80  O61 IDS d 506     -23.449  53.732 174.100  0.00  0.00    -0.646 OA
ATOM     81  O62 IDS d 506     -24.730  53.869 172.451  0.00  0.00    -0.646 OA
ENDBRANCH  72  79
ENDBRANCH  65  66
ENDBRANCH  56  65
BRANCH  58  82
ATOM     82  C6  SGN d 505     -17.475  55.012 174.877  0.00  0.00     0.198 C 
BRANCH  82  83
ATOM     83  O6  SGN d 505     -16.135  55.231 175.159  0.00  0.00    -0.235 OA
BRANCH  83  84
ATOM     84  S2  SGN d 505     -15.550  55.892 176.398  0.00  0.00     0.252 S 
ATOM     85  O6S SGN d 505     -14.490  56.782 175.943  0.00  0.00    -0.572 OA
ATOM     86  O4S SGN d 505     -16.658  56.603 176.993  0.00  0.00    -0.572 OA
ATOM     87  O5S SGN d 505     -15.048  54.796 177.190  0.00  0.00    -0.572 OA
ENDBRANCH  83  84
ENDBRANCH  82  83
ENDBRANCH  58  82
ENDBRANCH  52  53
ENDBRANCH   7  52
TORSDOF 27

ENDMDL
MODEL 47
REMARK VINA RESULT:       4.7      3.557      8.794
REMARK  27 active torsions:
REMARK  status: ('A' for Active; 'I' for Inactive)
REMARK    1  A    between atoms: C2_1  and  O2_78 
REMARK    2  A    between atoms: C1_3  and  O4_50 
REMARK    3  A    between atoms: O4_5  and  C4_58 
REMARK    4  A    between atoms: O4_5  and  C1_27 
REMARK    5  A    between atoms: C2_6  and  N_39 
REMARK    6  A    between atoms: S1_9  and  N_39 
REMARK    7  A    between atoms: C6_10  and  C5_52 
REMARK    8  A    between atoms: C2_12  and  N_73 
REMARK    9  A    between atoms: C2_19  and  O2_24 
REMARK   10  A    between atoms: C2_21  and  O2_44 
REMARK   11  A    between atoms: S2_23  and  O6_65 
REMARK   12  A    between atoms: O2_24  and  S_54 
REMARK   13  A    between atoms: C1_28  and  O4_60 
REMARK   14  A    between atoms: C5_29  and  C6_38 
REMARK   15  A    between atoms: C5_30  and  C6_33 
REMARK   16  A    between atoms: S1_34  and  N_73 
REMARK   17  A    between atoms: C5_41  and  C6_46 
REMARK   18  A    between atoms: S_43  and  O2_44 
REMARK   19  A    between atoms: C6_46  and  O6_72 
REMARK   20  A    between atoms: O4_50  and  C4_71 
REMARK   21  A    between atoms: C1_56  and  O4_64 
REMARK   22  A    between atoms: O4_60  and  C4_83 
REMARK   23  A    between atoms: C4_61  and  O4_64 
REMARK   24  A    between atoms: S2_63  and  O6_72 
REMARK   25  A    between atoms: O6_65  and  C6_67 
REMARK   26  A    between atoms: C6_67  and  C5_75 
REMARK   27  A    between atoms: S_76  and  O2_78 
ROOT
ATOM      1  C2  IDS d 504     -20.825  49.235 174.531  0.00  0.00     0.226 C 
ATOM      2  O3  IDS d 504     -22.012  48.297 172.601  0.00  0.00    -0.218 OA
ATOM      3  O5  IDS d 504     -19.008  50.061 173.134  0.00  0.00    -0.318 OA
ATOM      4  C5  IDS d 504     -19.257  49.117 172.117  0.00  0.00     0.234 C 
ATOM      5  C1  IDS d 504     -20.167  50.438 173.885  0.00  0.00     0.269 C 
ATOM      6  C3  IDS d 504     -20.974  48.023 173.534  0.00  0.00     0.216 C 
ATOM      7  C4  IDS d 504     -19.703  47.792 172.732  0.00  0.00     0.189 C 
ENDROOT
BRANCH   5   8
ATOM      8  O4  SGN d 503     -21.122  51.095 173.103  0.00  0.00    -0.326 OA
BRANCH   8   9
ATOM      9  C4  SGN d 503     -21.005  52.480 173.112  0.00  0.00     0.180 C 
ATOM     10  C3  SGN d 503     -20.828  52.943 174.556  0.00  0.00     0.210 C 
ATOM     11  C2  SGN d 503     -20.482  54.420 174.546  0.00  0.00     0.207 C 
ATOM     12  O3  SGN d 503     -22.052  52.739 175.236  0.00  0.00    -0.218 OA
ATOM     13  C1  SGN d 503     -19.280  54.714 173.635  0.00  0.00     0.263 C 
ATOM     14  O5  SGN d 503     -19.552  54.251 172.336  0.00  0.00    -0.327 OA
ATOM     15  C5  SGN d 503     -19.777  52.877 172.274  0.00  0.00     0.179 C 
BRANCH  11  16
ATOM     16  N   SGN d 503     -20.235  54.916 175.888  0.00  0.00    -0.162 NA
BRANCH  16  17
ATOM     17  S1  SGN d 503     -20.716  56.432 176.232  0.00  0.00     0.227 S 
ATOM     18  O1S SGN d 503     -21.602  56.829 175.154  0.00  0.00    -0.577 OA
ATOM     19  O2S SGN d 503     -21.399  56.413 177.525  0.00  0.00    -0.577 OA
ATOM     20  O3S SGN d 503     -19.479  57.179 176.235  0.00  0.00    -0.577 OA
ENDBRANCH  16  17
ENDBRANCH  11  16
BRANCH  13  21
ATOM     21  O4  IDS d 502     -18.110  54.140 174.150  0.00  0.00    -0.326 OA
BRANCH  21  22
ATOM     22  C4  IDS d 502     -17.043  55.037 174.326  0.00  0.00     0.189 C 
ATOM     23  C3  IDS d 502     -16.844  55.315 175.828  0.00  0.00     0.216 C 
ATOM     24  O3  IDS d 502     -15.909  56.365 175.981  0.00  0.00    -0.218 OA
ATOM     25  C2  IDS d 502     -16.292  54.080 176.546  0.00  0.00     0.229 C 
ATOM     26  C1  IDS d 502     -15.103  53.476 175.806  0.00  0.00     0.301 C 
ATOM     27  O1  IDS d 502     -14.001  54.323 175.995  0.00  0.00    -0.187 OA
ATOM     28  O5  IDS d 502     -15.398  53.269 174.447  0.00  0.00    -0.316 OA
ATOM     29  C5  IDS d 502     -15.770  54.434 173.737  0.00  0.00     0.234 C 
BRANCH  25  30
ATOM     30  O2  IDS d 502     -17.317  53.123 176.576  0.00  0.00    -0.232 OA
BRANCH  30  31
ATOM     31  S   IDS d 502     -17.569  52.022 177.659  0.00  0.00     0.252 S 
ATOM     32  O3S IDS d 502     -17.602  50.784 176.923  0.00  0.00    -0.572 OA
ATOM     33  O2S IDS d 502     -18.826  52.363 178.283  0.00  0.00    -0.572 OA
ATOM     34  O1S IDS d 502     -16.469  52.073 178.581  0.00  0.00    -0.572 OA
ENDBRANCH  30  31
ENDBRANCH  25  30
BRANCH  29  35
ATOM     35  C6  IDS d 502     -15.846  54.152 172.243  0.00  0.00     0.216 C 
ATOM     36  O61 IDS d 502     -15.697  55.033 171.431  0.00  0.00    -0.646 OA
ATOM     37  O62 IDS d 502     -16.054  53.029 171.827  0.00  0.00    -0.646 OA
ENDBRANCH  29  35
ENDBRANCH  21  22
ENDBRANCH  13  21
BRANCH  15  38
ATOM     38  C6  SGN d 503     -19.904  52.580 170.804  0.00  0.00     0.198 C 
BRANCH  38  39
ATOM     39  O6  SGN d 503     -21.173  53.034 170.387  0.00  0.00    -0.235 OA
BRANCH  39  40
ATOM     40  S2  SGN d 503     -21.476  53.770 169.055  0.00  0.00     0.252 S 
ATOM     41  O4S SGN d 503     -21.394  52.825 167.993  0.00  0.00    -0.572 OA
ATOM     42  O5S SGN d 503     -22.814  54.340 169.176  0.00  0.00    -0.572 OA
ATOM     43  O6S SGN d 503     -20.431  54.712 168.947  0.00  0.00    -0.572 OA
ENDBRANCH  39  40
ENDBRANCH  38  39
ENDBRANCH  15  38
ENDBRANCH   8   9
ENDBRANCH   5   8
BRANCH   1  44
ATOM     44  O2  IDS d 504     -20.049  48.855 175.666  0.00  0.00    -0.233 OA
BRANCH  44  45
ATOM     45  S   IDS d 504     -20.568  48.612 177.095  0.00  0.00     0.252 S 
ATOM     46  O3S IDS d 504     -20.823  49.915 177.583  0.00  0.00    -0.572 OA
ATOM     47  O2S IDS d 504     -19.555  47.889 177.806  0.00  0.00    -0.572 OA
ATOM     48  O1S IDS d 504     -21.758  47.853 176.965  0.00  0.00    -0.572 OA
ENDBRANCH  44  45
ENDBRANCH   1  44
BRANCH   4  49
ATOM     49  C6  IDS d 504     -18.054  49.023 171.165  0.00  0.00     0.216 C 
ATOM     50  O62 IDS d 504     -17.028  49.677 171.367  0.00  0.00    -0.646 OA
ATOM     51  O61 IDS d 504     -18.092  48.309 170.171  0.00  0.00    -0.646 OA
ENDBRANCH   4  49
BRANCH   7  52
ATOM     52  O4  IDS d 504     -18.691  47.287 173.591  0.00  0.00    -0.326 OA
BRANCH  52  53
ATOM     53  C1  SGN d 505     -18.521  45.898 173.512  0.00  0.00     0.263 C 
ATOM     54  C2  SGN d 505     -17.872  45.344 174.765  0.00  0.00     0.207 C 
ATOM     55  C3  SGN d 505     -16.423  45.850 174.900  0.00  0.00     0.210 C 
ATOM     56  C4  SGN d 505     -15.700  45.407 173.594  0.00  0.00     0.180 C 
ATOM     57  O3  SGN d 505     -15.831  45.229 176.033  0.00  0.00    -0.218 OA
ATOM     58  C5  SGN d 505     -16.436  46.046 172.461  0.00  0.00     0.179 C 
ATOM     59  O5  SGN d 505     -17.743  45.564 172.398  0.00  0.00    -0.327 OA
BRANCH  54  60
ATOM     60  N   SGN d 505     -18.748  45.612 175.930  0.00  0.00    -0.162 NA
BRANCH  60  61
ATOM     61  S1  SGN d 505     -19.329  44.291 176.782  0.00  0.00     0.227 S 
ATOM     62  O3S SGN d 505     -19.737  43.327 175.823  0.00  0.00    -0.577 OA
ATOM     63  O1S SGN d 505     -18.261  43.819 177.639  0.00  0.00    -0.577 OA
ATOM     64  O2S SGN d 505     -20.455  44.797 177.531  0.00  0.00    -0.577 OA
ENDBRANCH  60  61
ENDBRANCH  54  60
BRANCH  56  65
ATOM     65  O4  SGN d 505     -14.358  45.829 173.468  0.00  0.00    -0.326 OA
BRANCH  65  66
ATOM     66  C1  IDS d 506     -13.574  46.223 174.541  0.00  0.00     0.269 C 
ATOM     67  C2  IDS d 506     -12.371  47.018 174.013  0.00  0.00     0.226 C 
ATOM     68  C3  IDS d 506     -11.254  47.221 175.073  0.00  0.00     0.219 C 
ATOM     69  O3  IDS d 506     -11.596  48.344 175.881  0.00  0.00    -0.218 OA
ATOM     70  C4  IDS d 506     -11.042  46.000 175.994  0.00  0.00     0.223 C 
ATOM     71  O4  IDS d 506     -10.232  45.085 175.294  0.00  0.00    -0.217 OA
ATOM     72  C5  IDS d 506     -12.382  45.344 176.341  0.00  0.00     0.237 C 
ATOM     73  O5  IDS d 506     -13.094  45.068 175.180  0.00  0.00    -0.318 OA
BRANCH  67  74
ATOM     74  O2  IDS d 506     -11.782  46.339 172.921  0.00  0.00    -0.233 OA
BRANCH  74  75
ATOM     75  S   IDS d 506     -10.748  46.903 171.854  0.00  0.00     0.252 S 
ATOM     76  O1S IDS d 506      -9.458  46.557 172.368  0.00  0.00    -0.572 OA
ATOM     77  O2S IDS d 506     -10.997  46.247 170.602  0.00  0.00    -0.572 OA
ATOM     78  O3S IDS d 506     -10.979  48.330 171.807  0.00  0.00    -0.572 OA
ENDBRANCH  74  75
ENDBRANCH  67  74
BRANCH  72  79
ATOM     79  C6  IDS d 506     -12.324  44.098 177.205  0.00  0.00     0.217 C 
ATOM     80  O61 IDS d 506     -12.908  43.082 176.854  0.00  0.00    -0.646 OA
ATOM     81  O62 IDS d 506     -11.720  44.073 178.263  0.00  0.00    -0.646 OA
ENDBRANCH  72  79
ENDBRANCH  65  66
ENDBRANCH  56  65
BRANCH  58  82
ATOM     82  C6  SGN d 505     -15.818  45.756 171.132  0.00  0.00     0.198 C 
BRANCH  82  83
ATOM     83  O6  SGN d 505     -15.214  46.943 170.746  0.00  0.00    -0.235 OA
BRANCH  83  84
ATOM     84  S2  SGN d 505     -14.396  47.193 169.487  0.00  0.00     0.252 S 
ATOM     85  O6S SGN d 505     -15.330  47.611 168.451  0.00  0.00    -0.572 OA
ATOM     86  O4S SGN d 505     -13.467  48.237 169.855  0.00  0.00    -0.572 OA
ATOM     87  O5S SGN d 505     -13.781  45.922 169.196  0.00  0.00    -0.572 OA
ENDBRANCH  83  84
ENDBRANCH  82  83
ENDBRANCH  58  82
ENDBRANCH  52  53
ENDBRANCH   7  52
TORSDOF 27

ENDMDL
MODEL 48
REMARK VINA RESULT:       4.8      2.294      3.301
REMARK  27 active torsions:
REMARK  status: ('A' for Active; 'I' for Inactive)
REMARK    1  A    between atoms: C2_1  and  O2_78 
REMARK    2  A    between atoms: C1_3  and  O4_50 
REMARK    3  A    between atoms: O4_5  and  C4_58 
REMARK    4  A    between atoms: O4_5  and  C1_27 
REMARK    5  A    between atoms: C2_6  and  N_39 
REMARK    6  A    between atoms: S1_9  and  N_39 
REMARK    7  A    between atoms: C6_10  and  C5_52 
REMARK    8  A    between atoms: C2_12  and  N_73 
REMARK    9  A    between atoms: C2_19  and  O2_24 
REMARK   10  A    between atoms: C2_21  and  O2_44 
REMARK   11  A    between atoms: S2_23  and  O6_65 
REMARK   12  A    between atoms: O2_24  and  S_54 
REMARK   13  A    between atoms: C1_28  and  O4_60 
REMARK   14  A    between atoms: C5_29  and  C6_38 
REMARK   15  A    between atoms: C5_30  and  C6_33 
REMARK   16  A    between atoms: S1_34  and  N_73 
REMARK   17  A    between atoms: C5_41  and  C6_46 
REMARK   18  A    between atoms: S_43  and  O2_44 
REMARK   19  A    between atoms: C6_46  and  O6_72 
REMARK   20  A    between atoms: O4_50  and  C4_71 
REMARK   21  A    between atoms: C1_56  and  O4_64 
REMARK   22  A    between atoms: O4_60  and  C4_83 
REMARK   23  A    between atoms: C4_61  and  O4_64 
REMARK   24  A    between atoms: S2_63  and  O6_72 
REMARK   25  A    between atoms: O6_65  and  C6_67 
REMARK   26  A    between atoms: C6_67  and  C5_75 
REMARK   27  A    between atoms: S_76  and  O2_78 
ROOT
ATOM      1  C2  IDS d 504     -15.708  48.987 175.142  0.00  0.00     0.226 C 
ATOM      2  O3  IDS d 504     -15.361  48.549 177.529  0.00  0.00    -0.218 OA
ATOM      3  O5  IDS d 504     -15.556  46.620 174.586  0.00  0.00    -0.318 OA
ATOM      4  C5  IDS d 504     -14.801  46.319 175.737  0.00  0.00     0.234 C 
ATOM      5  C1  IDS d 504     -16.450  47.727 174.740  0.00  0.00     0.269 C 
ATOM      6  C3  IDS d 504     -14.669  48.731 176.300  0.00  0.00     0.216 C 
ATOM      7  C4  IDS d 504     -13.852  47.472 176.056  0.00  0.00     0.189 C 
ENDROOT
BRANCH   5   8
ATOM      8  O4  SGN d 503     -17.447  47.483 175.689  0.00  0.00    -0.326 OA
BRANCH   8   9
ATOM      9  C4  SGN d 503     -18.574  46.850 175.176  0.00  0.00     0.180 C 
ATOM     10  C3  SGN d 503     -18.774  47.310 173.734  0.00  0.00     0.210 C 
ATOM     11  C2  SGN d 503     -19.864  46.459 173.108  0.00  0.00     0.207 C 
ATOM     12  O3  SGN d 503     -19.175  48.667 173.757  0.00  0.00    -0.218 OA
ATOM     13  C1  SGN d 503     -19.568  44.960 173.259  0.00  0.00     0.263 C 
ATOM     14  O5  SGN d 503     -19.405  44.648 174.620  0.00  0.00    -0.327 OA
ATOM     15  C5  SGN d 503     -18.348  45.328 175.221  0.00  0.00     0.179 C 
BRANCH  11  16
ATOM     16  N   SGN d 503     -20.064  46.800 171.711  0.00  0.00    -0.162 NA
BRANCH  16  17
ATOM     17  S1  SGN d 503     -21.593  46.828 171.154  0.00  0.00     0.227 S 
ATOM     18  O1S SGN d 503     -21.889  45.477 170.717  0.00  0.00    -0.577 OA
ATOM     19  O2S SGN d 503     -22.468  47.257 172.244  0.00  0.00    -0.577 OA
ATOM     20  O3S SGN d 503     -21.527  47.763 170.054  0.00  0.00    -0.577 OA
ENDBRANCH  16  17
ENDBRANCH  11  16
BRANCH  13  21
ATOM     21  O4  IDS d 502     -18.442  44.593 172.511  0.00  0.00    -0.326 OA
BRANCH  21  22
ATOM     22  C4  IDS d 502     -18.619  43.463 171.696  0.00  0.00     0.189 C 
ATOM     23  C3  IDS d 502     -18.198  43.796 170.252  0.00  0.00     0.216 C 
ATOM     24  O3  IDS d 502     -18.567  42.724 169.407  0.00  0.00    -0.218 OA
ATOM     25  C2  IDS d 502     -16.681  43.978 170.151  0.00  0.00     0.229 C 
ATOM     26  C1  IDS d 502     -15.925  42.841 170.831  0.00  0.00     0.301 C 
ATOM     27  O1  IDS d 502     -16.041  41.701 170.022  0.00  0.00    -0.187 OA
ATOM     28  O5  IDS d 502     -16.393  42.626 172.139  0.00  0.00    -0.316 OA
ATOM     29  C5  IDS d 502     -17.769  42.313 172.232  0.00  0.00     0.234 C 
BRANCH  25  30
ATOM     30  O2  IDS d 502     -16.360  45.172 170.814  0.00  0.00    -0.232 OA
BRANCH  30  31
ATOM     31  S   IDS d 502     -15.550  46.389 170.258  0.00  0.00     0.252 S 
ATOM     32  O3S IDS d 502     -15.050  47.064 171.427  0.00  0.00    -0.572 OA
ATOM     33  O2S IDS d 502     -16.491  47.172 169.491  0.00  0.00    -0.572 OA
ATOM     34  O1S IDS d 502     -14.490  45.860 169.445  0.00  0.00    -0.572 OA
ENDBRANCH  30  31
ENDBRANCH  25  30
BRANCH  29  35
ATOM     35  C6  IDS d 502     -18.128  41.877 173.645  0.00  0.00     0.216 C 
ATOM     36  O61 IDS d 502     -17.329  41.955 174.547  0.00  0.00    -0.646 OA
ATOM     37  O62 IDS d 502     -19.233  41.442 173.905  0.00  0.00    -0.646 OA
ENDBRANCH  29  35
ENDBRANCH  21  22
ENDBRANCH  13  21
BRANCH  15  38
ATOM     38  C6  SGN d 503     -18.266  44.752 176.609  0.00  0.00     0.198 C 
BRANCH  38  39
ATOM     39  O6  SGN d 503     -19.266  43.763 176.718  0.00  0.00    -0.235 OA
BRANCH  39  40
ATOM     40  S2  SGN d 503     -20.231  43.584 177.920  0.00  0.00     0.252 S 
ATOM     41  O4S SGN d 503     -21.240  42.651 177.548  0.00  0.00    -0.572 OA
ATOM     42  O5S SGN d 503     -19.432  43.104 179.043  0.00  0.00    -0.572 OA
ATOM     43  O6S SGN d 503     -20.796  44.865 178.091  0.00  0.00    -0.572 OA
ENDBRANCH  39  40
ENDBRANCH  38  39
ENDBRANCH  15  38
ENDBRANCH   8   9
ENDBRANCH   5   8
BRANCH   1  44
ATOM     44  O2  IDS d 504     -15.051  49.507 173.988  0.00  0.00    -0.233 OA
BRANCH  44  45
ATOM     45  S   IDS d 504     -15.291  50.879 173.332  0.00  0.00     0.252 S 
ATOM     46  O3S IDS d 504     -16.686  51.073 173.466  0.00  0.00    -0.572 OA
ATOM     47  O2S IDS d 504     -14.819  50.802 171.981  0.00  0.00    -0.572 OA
ATOM     48  O1S IDS d 504     -14.551  51.820 174.091  0.00  0.00    -0.572 OA
ENDBRANCH  44  45
ENDBRANCH   1  44
BRANCH   4  49
ATOM     49  C6  IDS d 504     -14.131  44.942 175.596  0.00  0.00     0.216 C 
ATOM     50  O62 IDS d 504     -14.123  44.345 174.518  0.00  0.00    -0.646 OA
ATOM     51  O61 IDS d 504     -13.603  44.397 176.557  0.00  0.00    -0.646 OA
ENDBRANCH   4  49
BRANCH   7  52
ATOM     52  O4  IDS d 504     -12.966  47.691 174.969  0.00  0.00    -0.326 OA
BRANCH  52  53
ATOM     53  C1  SGN d 505     -11.635  47.902 175.355  0.00  0.00     0.263 C 
ATOM     54  C2  SGN d 505     -10.893  48.763 174.352  0.00  0.00     0.207 C 
ATOM     55  C3  SGN d 505     -10.737  48.025 173.008  0.00  0.00     0.210 C 
ATOM     56  C4  SGN d 505      -9.992  46.700 173.340  0.00  0.00     0.180 C 
ATOM     57  O3  SGN d 505      -9.956  48.833 172.137  0.00  0.00    -0.218 OA
ATOM     58  C5  SGN d 505     -10.850  45.959 174.313  0.00  0.00     0.179 C 
ATOM     59  O5  SGN d 505     -10.969  46.679 175.501  0.00  0.00    -0.327 OA
BRANCH  54  60
ATOM     60  N   SGN d 505     -11.542  50.093 174.274  0.00  0.00    -0.162 NA
BRANCH  60  61
ATOM     61  S1  SGN d 505     -10.668  51.414 174.820  0.00  0.00     0.227 S 
ATOM     62  O3S SGN d 505      -9.371  50.942 175.156  0.00  0.00    -0.577 OA
ATOM     63  O1S SGN d 505     -10.654  52.399 173.759  0.00  0.00    -0.577 OA
ATOM     64  O2S SGN d 505     -11.380  51.873 175.990  0.00  0.00    -0.577 OA
ENDBRANCH  60  61
ENDBRANCH  54  60
BRANCH  56  65
ATOM     65  O4  SGN d 505      -9.798  45.822 172.251  0.00  0.00    -0.326 OA
BRANCH  65  66
ATOM     66  C1  IDS d 506      -8.856  46.031 171.255  0.00  0.00     0.269 C 
ATOM     67  C2  IDS d 506      -9.149  45.079 170.087  0.00  0.00     0.226 C 
ATOM     68  C3  IDS d 506      -7.980  44.979 169.067  0.00  0.00     0.219 C 
ATOM     69  O3  IDS d 506      -8.081  46.070 168.156  0.00  0.00    -0.218 OA
ATOM     70  C4  IDS d 506      -6.582  45.012 169.720  0.00  0.00     0.223 C 
ATOM     71  O4  IDS d 506      -6.306  43.711 170.184  0.00  0.00    -0.217 OA
ATOM     72  C5  IDS d 506      -6.554  45.997 170.893  0.00  0.00     0.237 C 
ATOM     73  O5  IDS d 506      -7.590  45.717 171.776  0.00  0.00    -0.318 OA
BRANCH  67  74
ATOM     74  O2  IDS d 506      -9.381  43.771 170.572  0.00  0.00    -0.233 OA
BRANCH  74  75
ATOM     75  S   IDS d 506     -10.527  42.754 170.151  0.00  0.00     0.252 S 
ATOM     76  O1S IDS d 506      -9.994  42.033 169.037  0.00  0.00    -0.572 OA
ATOM     77  O2S IDS d 506     -10.777  41.878 171.261  0.00  0.00    -0.572 OA
ATOM     78  O3S IDS d 506     -11.666  43.576 169.805  0.00  0.00    -0.572 OA
ENDBRANCH  74  75
ENDBRANCH  67  74
BRANCH  72  79
ATOM     79  C6  IDS d 506      -5.250  46.099 171.663  0.00  0.00     0.217 C 
ATOM     80  O61 IDS d 506      -5.129  45.529 172.739  0.00  0.00    -0.646 OA
ATOM     81  O62 IDS d 506      -4.306  46.751 171.252  0.00  0.00    -0.646 OA
ENDBRANCH  72  79
ENDBRANCH  65  66
ENDBRANCH  56  65
BRANCH  58  82
ATOM     82  C6  SGN d 505     -10.286  44.627 174.686  0.00  0.00     0.198 C 
BRANCH  82  83
ATOM     83  O6  SGN d 505      -9.242  44.904 175.555  0.00  0.00    -0.235 OA
BRANCH  83  84
ATOM     84  S2  SGN d 505      -7.839  44.317 175.526  0.00  0.00     0.252 S 
ATOM     85  O6S SGN d 505      -7.738  43.519 174.312  0.00  0.00    -0.572 OA
ATOM     86  O4S SGN d 505      -6.961  45.465 175.513  0.00  0.00    -0.572 OA
ATOM     87  O5S SGN d 505      -7.757  43.516 176.722  0.00  0.00    -0.572 OA
ENDBRANCH  83  84
ENDBRANCH  82  83
ENDBRANCH  58  82
ENDBRANCH  52  53
ENDBRANCH   7  52
TORSDOF 27

ENDMDL
MODEL 49
REMARK VINA RESULT:       4.8      3.450      8.054
REMARK  27 active torsions:
REMARK  status: ('A' for Active; 'I' for Inactive)
REMARK    1  A    between atoms: C2_1  and  O2_78 
REMARK    2  A    between atoms: C1_3  and  O4_50 
REMARK    3  A    between atoms: O4_5  and  C4_58 
REMARK    4  A    between atoms: O4_5  and  C1_27 
REMARK    5  A    between atoms: C2_6  and  N_39 
REMARK    6  A    between atoms: S1_9  and  N_39 
REMARK    7  A    between atoms: C6_10  and  C5_52 
REMARK    8  A    between atoms: C2_12  and  N_73 
REMARK    9  A    between atoms: C2_19  and  O2_24 
REMARK   10  A    between atoms: C2_21  and  O2_44 
REMARK   11  A    between atoms: S2_23  and  O6_65 
REMARK   12  A    between atoms: O2_24  and  S_54 
REMARK   13  A    between atoms: C1_28  and  O4_60 
REMARK   14  A    between atoms: C5_29  and  C6_38 
REMARK   15  A    between atoms: C5_30  and  C6_33 
REMARK   16  A    between atoms: S1_34  and  N_73 
REMARK   17  A    between atoms: C5_41  and  C6_46 
REMARK   18  A    between atoms: S_43  and  O2_44 
REMARK   19  A    between atoms: C6_46  and  O6_72 
REMARK   20  A    between atoms: O4_50  and  C4_71 
REMARK   21  A    between atoms: C1_56  and  O4_64 
REMARK   22  A    between atoms: O4_60  and  C4_83 
REMARK   23  A    between atoms: C4_61  and  O4_64 
REMARK   24  A    between atoms: S2_63  and  O6_72 
REMARK   25  A    between atoms: O6_65  and  C6_67 
REMARK   26  A    between atoms: C6_67  and  C5_75 
REMARK   27  A    between atoms: S_76  and  O2_78 
ROOT
ATOM      1  C2  IDS d 504     -18.825  43.751 174.002  0.00  0.00     0.226 C 
ATOM      2  O3  IDS d 504     -18.388  42.538 171.916  0.00  0.00    -0.218 OA
ATOM      3  O5  IDS d 504     -19.206  45.846 172.818  0.00  0.00    -0.318 OA
ATOM      4  C5  IDS d 504     -18.440  45.445 171.705  0.00  0.00     0.234 C 
ATOM      5  C1  IDS d 504     -19.838  44.768 173.517  0.00  0.00     0.269 C 
ATOM      6  C3  IDS d 504     -17.772  43.371 172.891  0.00  0.00     0.216 C 
ATOM      7  C4  IDS d 504     -17.252  44.601 172.163  0.00  0.00     0.189 C 
ENDROOT
BRANCH   5   8
ATOM      8  O4  SGN d 503     -20.786  44.104 172.733  0.00  0.00    -0.326 OA
BRANCH   8   9
ATOM      9  C4  SGN d 503     -22.077  44.607 172.858  0.00  0.00     0.180 C 
ATOM     10  C3  SGN d 503     -22.325  44.944 174.326  0.00  0.00     0.210 C 
ATOM     11  C2  SGN d 503     -23.642  45.692 174.429  0.00  0.00     0.207 C 
ATOM     12  O3  SGN d 503     -22.403  43.730 175.049  0.00  0.00    -0.218 OA
ATOM     13  C1  SGN d 503     -23.679  46.904 173.486  0.00  0.00     0.263 C 
ATOM     14  O5  SGN d 503     -23.441  46.481 172.167  0.00  0.00    -0.327 OA
ATOM     15  C5  SGN d 503     -22.198  45.876 171.995  0.00  0.00     0.179 C 
BRANCH  11  16
ATOM     16  N   SGN d 503     -23.912  46.103 175.795  0.00  0.00    -0.162 NA
BRANCH  16  17
ATOM     17  S1  SGN d 503     -25.264  45.532 176.499  0.00  0.00     0.227 S 
ATOM     18  O1S SGN d 503     -25.711  44.424 175.677  0.00  0.00    -0.577 OA
ATOM     19  O2S SGN d 503     -24.927  45.106 177.857  0.00  0.00    -0.577 OA
ATOM     20  O3S SGN d 503     -26.166  46.660 176.447  0.00  0.00    -0.577 OA
ENDBRANCH  16  17
ENDBRANCH  11  16
BRANCH  13  21
ATOM     21  O4  IDS d 502     -22.754  47.878 173.886  0.00  0.00    -0.326 OA
BRANCH  21  22
ATOM     22  C4  IDS d 502     -23.284  49.172 174.023  0.00  0.00     0.189 C 
ATOM     23  C3  IDS d 502     -23.025  49.687 175.452  0.00  0.00     0.216 C 
ATOM     24  O3  IDS d 502     -23.734  50.897 175.639  0.00  0.00    -0.218 OA
ATOM     25  C2  IDS d 502     -21.537  49.970 175.672  0.00  0.00     0.229 C 
ATOM     26  C1  IDS d 502     -20.941  50.796 174.536  0.00  0.00     0.301 C 
ATOM     27  O1  IDS d 502     -21.413  52.111 174.665  0.00  0.00    -0.187 OA
ATOM     28  O5  IDS d 502     -21.241  50.235 173.283  0.00  0.00    -0.316 OA
ATOM     29  C5  IDS d 502     -22.622  50.102 173.009  0.00  0.00     0.234 C 
BRANCH  25  30
ATOM     30  O2  IDS d 502     -20.877  48.733 175.702  0.00  0.00    -0.232 OA
BRANCH  30  31
ATOM     31  S   IDS d 502     -19.515  48.390 176.389  0.00  0.00     0.252 S 
ATOM     32  O3S IDS d 502     -18.780  47.646 175.399  0.00  0.00    -0.572 OA
ATOM     33  O2S IDS d 502     -19.849  47.621 177.566  0.00  0.00    -0.572 OA
ATOM     34  O1S IDS d 502     -18.876  49.635 176.714  0.00  0.00    -0.572 OA
ENDBRANCH  30  31
ENDBRANCH  25  30
BRANCH  29  35
ATOM     35  C6  IDS d 502     -22.847  49.703 171.557  0.00  0.00     0.216 C 
ATOM     36  O61 IDS d 502     -23.946  49.741 171.060  0.00  0.00    -0.646 OA
ATOM     37  O62 IDS d 502     -21.921  49.340 170.857  0.00  0.00    -0.646 OA
ENDBRANCH  29  35
ENDBRANCH  21  22
ENDBRANCH  13  21
BRANCH  15  38
ATOM     38  C6  SGN d 503     -22.096  45.632 170.514  0.00  0.00     0.198 C 
BRANCH  38  39
ATOM     39  O6  SGN d 503     -22.962  44.564 170.198  0.00  0.00    -0.235 OA
BRANCH  39  40
ATOM     40  S2  SGN d 503     -24.022  44.566 169.065  0.00  0.00     0.252 S 
ATOM     41  O4S SGN d 503     -23.650  45.551 168.106  0.00  0.00    -0.572 OA
ATOM     42  O5S SGN d 503     -24.036  43.224 168.490  0.00  0.00    -0.572 OA
ATOM     43  O6S SGN d 503     -25.211  44.950 169.718  0.00  0.00    -0.572 OA
ENDBRANCH  39  40
ENDBRANCH  38  39
ENDBRANCH  15  38
ENDBRANCH   8   9
ENDBRANCH   5   8
BRANCH   1  44
ATOM     44  O2  IDS d 504     -18.167  44.286 175.150  0.00  0.00    -0.233 OA
BRANCH  44  45
ATOM     45  S   IDS d 504     -18.388  43.868 176.615  0.00  0.00     0.252 S 
ATOM     46  O3S IDS d 504     -19.707  44.301 176.890  0.00  0.00    -0.572 OA
ATOM     47  O2S IDS d 504     -17.370  44.497 177.404  0.00  0.00    -0.572 OA
ATOM     48  O1S IDS d 504     -18.278  42.455 176.649  0.00  0.00    -0.572 OA
ENDBRANCH  44  45
ENDBRANCH   1  44
BRANCH   4  49
ATOM     49  C6  IDS d 504     -18.080  46.661 170.834  0.00  0.00     0.216 C 
ATOM     50  O62 IDS d 504     -17.575  46.518 169.719  0.00  0.00    -0.646 OA
ATOM     51  O61 IDS d 504     -18.270  47.801 171.237  0.00  0.00    -0.646 OA
ENDBRANCH   4  49
BRANCH   7  52
ATOM     52  O4  IDS d 504     -16.428  45.354 173.042  0.00  0.00    -0.326 OA
BRANCH  52  53
ATOM     53  C1  SGN d 505     -15.063  45.292 172.731  0.00  0.00     0.263 C 
ATOM     54  C2  SGN d 505     -14.205  45.328 173.980  0.00  0.00     0.207 C 
ATOM     55  C3  SGN d 505     -14.325  46.691 174.687  0.00  0.00     0.210 C 
ATOM     56  C4  SGN d 505     -13.903  47.752 173.630  0.00  0.00     0.180 C 
ATOM     57  O3  SGN d 505     -13.432  46.706 175.793  0.00  0.00    -0.218 OA
ATOM     58  C5  SGN d 505     -14.847  47.609 172.480  0.00  0.00     0.179 C 
ATOM     59  O5  SGN d 505     -14.706  46.353 171.890  0.00  0.00    -0.327 OA
BRANCH  54  60
ATOM     60  N   SGN d 505     -14.515  44.148 174.820  0.00  0.00    -0.162 NA
BRANCH  60  61
ATOM     61  S1  SGN d 505     -13.257  43.101 175.180  0.00  0.00     0.227 S 
ATOM     62  O3S SGN d 505     -13.489  41.908 174.448  0.00  0.00    -0.577 OA
ATOM     63  O1S SGN d 505     -12.021  43.760 174.812  0.00  0.00    -0.577 OA
ATOM     64  O2S SGN d 505     -13.357  42.874 176.603  0.00  0.00    -0.577 OA
ENDBRANCH  60  61
ENDBRANCH  54  60
BRANCH  56  65
ATOM     65  O4  SGN d 505     -14.002  49.099 174.044  0.00  0.00    -0.326 OA
BRANCH  65  66
ATOM     66  C1  IDS d 506     -13.294  49.627 175.112  0.00  0.00     0.269 C 
ATOM     67  C2  IDS d 506     -13.651  51.113 175.260  0.00  0.00     0.226 C 
ATOM     68  C3  IDS d 506     -12.682  51.889 176.194  0.00  0.00     0.219 C 
ATOM     69  O3  IDS d 506     -13.097  51.692 177.543  0.00  0.00    -0.218 OA
ATOM     70  C4  IDS d 506     -11.208  51.447 176.064  0.00  0.00     0.223 C 
ATOM     71  O4  IDS d 506     -10.672  52.103 174.939  0.00  0.00    -0.217 OA
ATOM     72  C5  IDS d 506     -11.112  49.930 175.873  0.00  0.00     0.237 C 
ATOM     73  O5  IDS d 506     -11.923  49.529 174.819  0.00  0.00    -0.318 OA
BRANCH  67  74
ATOM     74  O2  IDS d 506     -13.605  51.752 174.000  0.00  0.00    -0.233 OA
BRANCH  74  75
ATOM     75  S   IDS d 506     -14.669  52.744 173.360  0.00  0.00     0.252 S 
ATOM     76  O1S IDS d 506     -15.752  52.780 174.293  0.00  0.00    -0.572 OA
ATOM     77  O2S IDS d 506     -14.054  54.035 173.232  0.00  0.00    -0.572 OA
ATOM     78  O3S IDS d 506     -15.031  52.155 172.088  0.00  0.00    -0.572 OA
ENDBRANCH  74  75
ENDBRANCH  67  74
BRANCH  72  79
ATOM     79  C6  IDS d 506      -9.719  49.357 175.684  0.00  0.00     0.217 C 
ATOM     80  O61 IDS d 506      -9.547  48.403 174.938  0.00  0.00    -0.646 OA
ATOM     81  O62 IDS d 506      -8.749  49.809 176.267  0.00  0.00    -0.646 OA
ENDBRANCH  72  79
ENDBRANCH  65  66
ENDBRANCH  56  65
BRANCH  58  82
ATOM     82  C6  SGN d 505     -14.599  48.610 171.399  0.00  0.00     0.198 C 
BRANCH  82  83
ATOM     83  O6  SGN d 505     -14.646  47.886 170.217  0.00  0.00    -0.235 OA
BRANCH  83  84
ATOM     84  S2  SGN d 505     -13.730  48.033 169.010  0.00  0.00     0.252 S 
ATOM     85  O6S SGN d 505     -14.588  48.203 167.845  0.00  0.00    -0.572 OA
ATOM     86  O4S SGN d 505     -12.935  49.207 169.293  0.00  0.00    -0.572 OA
ATOM     87  O5S SGN d 505     -12.983  46.801 168.970  0.00  0.00    -0.572 OA
ENDBRANCH  83  84
ENDBRANCH  82  83
ENDBRANCH  58  82
ENDBRANCH  52  53
ENDBRANCH   7  52
TORSDOF 27

ENDMDL
MODEL 50
REMARK VINA RESULT:       4.8      4.065     10.305
REMARK  27 active torsions:
REMARK  status: ('A' for Active; 'I' for Inactive)
REMARK    1  A    between atoms: C2_1  and  O2_78 
REMARK    2  A    between atoms: C1_3  and  O4_50 
REMARK    3  A    between atoms: O4_5  and  C4_58 
REMARK    4  A    between atoms: O4_5  and  C1_27 
REMARK    5  A    between atoms: C2_6  and  N_39 
REMARK    6  A    between atoms: S1_9  and  N_39 
REMARK    7  A    between atoms: C6_10  and  C5_52 
REMARK    8  A    between atoms: C2_12  and  N_73 
REMARK    9  A    between atoms: C2_19  and  O2_24 
REMARK   10  A    between atoms: C2_21  and  O2_44 
REMARK   11  A    between atoms: S2_23  and  O6_65 
REMARK   12  A    between atoms: O2_24  and  S_54 
REMARK   13  A    between atoms: C1_28  and  O4_60 
REMARK   14  A    between atoms: C5_29  and  C6_38 
REMARK   15  A    between atoms: C5_30  and  C6_33 
REMARK   16  A    between atoms: S1_34  and  N_73 
REMARK   17  A    between atoms: C5_41  and  C6_46 
REMARK   18  A    between atoms: S_43  and  O2_44 
REMARK   19  A    between atoms: C6_46  and  O6_72 
REMARK   20  A    between atoms: O4_50  and  C4_71 
REMARK   21  A    between atoms: C1_56  and  O4_64 
REMARK   22  A    between atoms: O4_60  and  C4_83 
REMARK   23  A    between atoms: C4_61  and  O4_64 
REMARK   24  A    between atoms: S2_63  and  O6_72 
REMARK   25  A    between atoms: O6_65  and  C6_67 
REMARK   26  A    between atoms: C6_67  and  C5_75 
REMARK   27  A    between atoms: S_76  and  O2_78 
ROOT
ATOM      1  C2  IDS d 504     -13.393  49.772 175.947  0.00  0.00     0.226 C 
ATOM      2  O3  IDS d 504     -12.272  51.566 174.705  0.00  0.00    -0.218 OA
ATOM      3  O5  IDS d 504     -14.537  48.972 173.950  0.00  0.00    -0.318 OA
ATOM      4  C5  IDS d 504     -14.447  50.222 173.305  0.00  0.00     0.234 C 
ATOM      5  C1  IDS d 504     -13.473  48.708 174.871  0.00  0.00     0.269 C 
ATOM      6  C3  IDS d 504     -13.491  51.232 175.358  0.00  0.00     0.216 C 
ATOM      7  C4  IDS d 504     -14.599  51.350 174.324  0.00  0.00     0.189 C 
ENDROOT
BRANCH   5   8
ATOM      8  O4  SGN d 503     -12.228  48.624 174.241  0.00  0.00    -0.326 OA
BRANCH   8   9
ATOM      9  C4  SGN d 503     -11.787  47.322 174.030  0.00  0.00     0.180 C 
ATOM     10  C3  SGN d 503     -12.287  46.449 175.178  0.00  0.00     0.210 C 
ATOM     11  C2  SGN d 503     -11.996  44.999 174.837  0.00  0.00     0.207 C 
ATOM     12  O3  SGN d 503     -11.585  46.818 176.350  0.00  0.00    -0.218 OA
ATOM     13  C1  SGN d 503     -12.559  44.617 173.460  0.00  0.00     0.263 C 
ATOM     14  O5  SGN d 503     -12.033  45.480 172.482  0.00  0.00    -0.327 OA
ATOM     15  C5  SGN d 503     -12.358  46.818 172.693  0.00  0.00     0.179 C 
BRANCH  11  16
ATOM     16  N   SGN d 503     -12.505  44.102 175.860  0.00  0.00    -0.162 NA
BRANCH  16  17
ATOM     17  S1  SGN d 503     -11.430  43.457 176.898  0.00  0.00     0.227 S 
ATOM     18  O1S SGN d 503     -11.618  42.020 176.833  0.00  0.00    -0.577 OA
ATOM     19  O2S SGN d 503     -10.089  43.854 176.472  0.00  0.00    -0.577 OA
ATOM     20  O3S SGN d 503     -11.827  44.010 178.173  0.00  0.00    -0.577 OA
ENDBRANCH  16  17
ENDBRANCH  11  16
BRANCH  13  21
ATOM     21  O4  IDS d 502     -13.960  44.644 173.467  0.00  0.00    -0.326 OA
BRANCH  21  22
ATOM     22  C4  IDS d 502     -14.572  43.529 172.870  0.00  0.00     0.189 C 
ATOM     23  C3  IDS d 502     -15.252  42.671 173.954  0.00  0.00     0.216 C 
ATOM     24  O3  IDS d 502     -15.688  41.458 173.373  0.00  0.00    -0.218 OA
ATOM     25  C2  IDS d 502     -16.477  43.387 174.531  0.00  0.00     0.229 C 
ATOM     26  C1  IDS d 502     -17.384  43.937 173.435  0.00  0.00     0.301 C 
ATOM     27  O1  IDS d 502     -18.050  42.853 172.842  0.00  0.00    -0.187 OA
ATOM     28  O5  IDS d 502     -16.657  44.699 172.504  0.00  0.00    -0.316 OA
ATOM     29  C5  IDS d 502     -15.611  44.002 171.856  0.00  0.00     0.234 C 
BRANCH  25  30
ATOM     30  O2  IDS d 502     -16.007  44.470 175.290  0.00  0.00    -0.232 OA
BRANCH  30  31
ATOM     31  S   IDS d 502     -16.089  44.659 176.841  0.00  0.00     0.252 S 
ATOM     32  O3S IDS d 502     -15.674  43.393 177.388  0.00  0.00    -0.572 OA
ATOM     33  O2S IDS d 502     -17.465  44.994 177.125  0.00  0.00    -0.572 OA
ATOM     34  O1S IDS d 502     -15.186  45.721 177.188  0.00  0.00    -0.572 OA
ENDBRANCH  30  31
ENDBRANCH  25  30
BRANCH  29  35
ATOM     35  C6  IDS d 502     -15.037  44.832 170.716  0.00  0.00     0.216 C 
ATOM     36  O61 IDS d 502     -14.071  44.461 170.095  0.00  0.00    -0.646 OA
ATOM     37  O62 IDS d 502     -15.542  45.891 170.396  0.00  0.00    -0.646 OA
ENDBRANCH  29  35
ENDBRANCH  21  22
ENDBRANCH  13  21
BRANCH  15  38
ATOM     38  C6  SGN d 503     -11.826  47.533 171.480  0.00  0.00     0.198 C 
BRANCH  38  39
ATOM     39  O6  SGN d 503     -12.912  48.189 170.863  0.00  0.00    -0.235 OA
BRANCH  39  40
ATOM     40  S2  SGN d 503     -13.100  48.380 169.334  0.00  0.00     0.252 S 
ATOM     41  O4S SGN d 503     -12.891  47.124 168.697  0.00  0.00    -0.572 OA
ATOM     42  O5S SGN d 503     -14.458  48.877 169.129  0.00  0.00    -0.572 OA
ATOM     43  O6S SGN d 503     -12.074  49.280 168.980  0.00  0.00    -0.572 OA
ENDBRANCH  39  40
ENDBRANCH  38  39
ENDBRANCH  15  38
ENDBRANCH   8   9
ENDBRANCH   5   8
BRANCH   1  44
ATOM     44  O2  IDS d 504     -14.441  49.541 176.885  0.00  0.00    -0.233 OA
BRANCH  44  45
ATOM     45  S   IDS d 504     -14.293  49.381 178.409  0.00  0.00     0.252 S 
ATOM     46  O3S IDS d 504     -14.784  50.604 178.923  0.00  0.00    -0.572 OA
ATOM     47  O2S IDS d 504     -12.910  49.122 178.686  0.00  0.00    -0.572 OA
ATOM     48  O1S IDS d 504     -15.113  48.285 178.778  0.00  0.00    -0.572 OA
ENDBRANCH  44  45
ENDBRANCH   1  44
BRANCH   4  49
ATOM     49  C6  IDS d 504     -15.419  50.283 172.114  0.00  0.00     0.216 C 
ATOM     50  O62 IDS d 504     -16.275  49.412 171.945  0.00  0.00    -0.646 OA
ATOM     51  O61 IDS d 504     -15.355  51.190 171.295  0.00  0.00    -0.646 OA
ENDBRANCH   4  49
BRANCH   7  52
ATOM     52  O4  IDS d 504     -15.859  51.256 174.973  0.00  0.00    -0.326 OA
BRANCH  52  53
ATOM     53  C1  SGN d 505     -16.064  52.232 175.957  0.00  0.00     0.263 C 
ATOM     54  C2  SGN d 505     -17.467  52.163 176.527  0.00  0.00     0.207 C 
ATOM     55  C3  SGN d 505     -18.511  52.542 175.458  0.00  0.00     0.210 C 
ATOM     56  C4  SGN d 505     -18.120  53.970 174.977  0.00  0.00     0.180 C 
ATOM     57  O3  SGN d 505     -19.796  52.555 176.066  0.00  0.00    -0.218 OA
ATOM     58  C5  SGN d 505     -16.734  53.871 174.427  0.00  0.00     0.179 C 
ATOM     59  O5  SGN d 505     -15.837  53.510 175.432  0.00  0.00    -0.327 OA
BRANCH  54  60
ATOM     60  N   SGN d 505     -17.670  50.844 177.170  0.00  0.00    -0.162 NA
BRANCH  60  61
ATOM     61  S1  SGN d 505     -18.348  49.626 176.241  0.00  0.00     0.227 S 
ATOM     62  O3S SGN d 505     -19.659  49.407 176.738  0.00  0.00    -0.577 OA
ATOM     63  O1S SGN d 505     -18.332  50.067 174.862  0.00  0.00    -0.577 OA
ATOM     64  O2S SGN d 505     -17.503  48.475 176.462  0.00  0.00    -0.577 OA
ENDBRANCH  60  61
ENDBRANCH  54  60
BRANCH  56  65
ATOM     65  O4  SGN d 505     -18.911  54.499 173.933  0.00  0.00    -0.326 OA
BRANCH  65  66
ATOM     66  C1  IDS d 506     -20.249  54.833 174.079  0.00  0.00     0.269 C 
ATOM     67  C2  IDS d 506     -20.804  55.268 172.716  0.00  0.00     0.226 C 
ATOM     68  C3  IDS d 506     -22.182  55.980 172.811  0.00  0.00     0.219 C 
ATOM     69  O3  IDS d 506     -23.202  54.987 172.870  0.00  0.00    -0.218 OA
ATOM     70  C4  IDS d 506     -22.321  56.900 174.043  0.00  0.00     0.223 C 
ATOM     71  O4  IDS d 506     -21.696  58.121 173.725  0.00  0.00    -0.217 OA
ATOM     72  C5  IDS d 506     -21.644  56.274 175.266  0.00  0.00     0.237 C 
ATOM     73  O5  IDS d 506     -20.334  55.924 174.960  0.00  0.00    -0.318 OA
BRANCH  67  74
ATOM     74  O2  IDS d 506     -19.915  56.176 172.096  0.00  0.00    -0.233 OA
BRANCH  74  75
ATOM     75  S   IDS d 506     -19.282  56.096 170.641  0.00  0.00     0.252 S 
ATOM     76  O1S IDS d 506     -17.867  56.128 170.849  0.00  0.00    -0.572 OA
ATOM     77  O2S IDS d 506     -19.687  54.854 170.045  0.00  0.00    -0.572 OA
ATOM     78  O3S IDS d 506     -19.781  57.257 169.936  0.00  0.00    -0.572 OA
ENDBRANCH  74  75
ENDBRANCH  67  74
BRANCH  72  79
ATOM     79  C6  IDS d 506     -21.660  57.093 176.544  0.00  0.00     0.217 C 
ATOM     80  O61 IDS d 506     -21.693  58.314 176.487  0.00  0.00    -0.646 OA
ATOM     81  O62 IDS d 506     -21.626  56.572 177.646  0.00  0.00    -0.646 OA
ENDBRANCH  72  79
ENDBRANCH  65  66
ENDBRANCH  56  65
BRANCH  58  82
ATOM     82  C6  SGN d 505     -16.238  55.165 173.868  0.00  0.00     0.198 C 
BRANCH  82  83
ATOM     83  O6  SGN d 505     -15.154  55.511 174.661  0.00  0.00    -0.235 OA
BRANCH  83  84
ATOM     84  S2  SGN d 505     -15.036  56.714 175.586  0.00  0.00     0.252 S 
ATOM     85  O6S SGN d 505     -13.949  57.537 175.075  0.00  0.00    -0.572 OA
ATOM     86  O4S SGN d 505     -16.321  57.370 175.501  0.00  0.00    -0.572 OA
ATOM     87  O5S SGN d 505     -14.738  56.148 176.879  0.00  0.00    -0.572 OA
ENDBRANCH  83  84
ENDBRANCH  82  83
ENDBRANCH  58  82
ENDBRANCH  52  53
ENDBRANCH   7  52
TORSDOF 27

ENDMDL
MODEL 51
REMARK VINA RESULT:       4.8      4.952      8.342
REMARK  27 active torsions:
REMARK  status: ('A' for Active; 'I' for Inactive)
REMARK    1  A    between atoms: C2_1  and  O2_78 
REMARK    2  A    between atoms: C1_3  and  O4_50 
REMARK    3  A    between atoms: O4_5  and  C4_58 
REMARK    4  A    between atoms: O4_5  and  C1_27 
REMARK    5  A    between atoms: C2_6  and  N_39 
REMARK    6  A    between atoms: S1_9  and  N_39 
REMARK    7  A    between atoms: C6_10  and  C5_52 
REMARK    8  A    between atoms: C2_12  and  N_73 
REMARK    9  A    between atoms: C2_19  and  O2_24 
REMARK   10  A    between atoms: C2_21  and  O2_44 
REMARK   11  A    between atoms: S2_23  and  O6_65 
REMARK   12  A    between atoms: O2_24  and  S_54 
REMARK   13  A    between atoms: C1_28  and  O4_60 
REMARK   14  A    between atoms: C5_29  and  C6_38 
REMARK   15  A    between atoms: C5_30  and  C6_33 
REMARK   16  A    between atoms: S1_34  and  N_73 
REMARK   17  A    between atoms: C5_41  and  C6_46 
REMARK   18  A    between atoms: S_43  and  O2_44 
REMARK   19  A    between atoms: C6_46  and  O6_72 
REMARK   20  A    between atoms: O4_50  and  C4_71 
REMARK   21  A    between atoms: C1_56  and  O4_64 
REMARK   22  A    between atoms: O4_60  and  C4_83 
REMARK   23  A    between atoms: C4_61  and  O4_64 
REMARK   24  A    between atoms: S2_63  and  O6_72 
REMARK   25  A    between atoms: O6_65  and  C6_67 
REMARK   26  A    between atoms: C6_67  and  C5_75 
REMARK   27  A    between atoms: S_76  and  O2_78 
ROOT
ATOM      1  C2  IDS d 504     -18.185  51.498 174.844  0.00  0.00     0.226 C 
ATOM      2  O3  IDS d 504     -18.888  49.885 173.135  0.00  0.00    -0.218 OA
ATOM      3  O5  IDS d 504     -16.876  52.777 173.236  0.00  0.00    -0.318 OA
ATOM      4  C5  IDS d 504     -16.718  51.675 172.371  0.00  0.00     0.234 C 
ATOM      5  C1  IDS d 504     -18.084  52.755 174.003  0.00  0.00     0.269 C 
ATOM      6  C3  IDS d 504     -17.826  50.197 174.027  0.00  0.00     0.216 C 
ATOM      7  C4  IDS d 504     -16.575  50.389 173.183  0.00  0.00     0.189 C 
ENDROOT
BRANCH   5   8
ATOM      8  O4  SGN d 503     -19.228  52.844 173.204  0.00  0.00    -0.326 OA
BRANCH   8   9
ATOM      9  C4  SGN d 503     -19.774  54.121 173.136  0.00  0.00     0.180 C 
ATOM     10  C3  SGN d 503     -19.314  54.910 174.360  0.00  0.00     0.210 C 
ATOM     11  C2  SGN d 503     -19.725  56.359 174.175  0.00  0.00     0.207 C 
ATOM     12  O3  SGN d 503     -19.956  54.369 175.499  0.00  0.00    -0.218 OA
ATOM     13  C1  SGN d 503     -19.227  56.922 172.836  0.00  0.00     0.263 C 
ATOM     14  O5  SGN d 503     -19.709  56.124 171.783  0.00  0.00    -0.327 OA
ATOM     15  C5  SGN d 503     -19.276  54.801 171.849  0.00  0.00     0.179 C 
BRANCH  11  16
ATOM     16  N   SGN d 503     -19.262  57.185 175.277  0.00  0.00    -0.162 NA
BRANCH  16  17
ATOM     17  S1  SGN d 503     -20.352  58.150 176.004  0.00  0.00     0.227 S 
ATOM     18  O1S SGN d 503     -21.179  57.282 176.822  0.00  0.00    -0.577 OA
ATOM     19  O2S SGN d 503     -19.627  59.133 176.807  0.00  0.00    -0.577 OA
ATOM     20  O3S SGN d 503     -21.080  58.723 174.894  0.00  0.00    -0.577 OA
ENDBRANCH  16  17
ENDBRANCH  11  16
BRANCH  13  21
ATOM     21  O4  IDS d 502     -17.829  57.007 172.817  0.00  0.00    -0.326 OA
BRANCH  21  22
ATOM     22  C4  IDS d 502     -17.320  58.249 172.404  0.00  0.00     0.189 C 
ATOM     23  C3  IDS d 502     -16.759  59.008 173.621  0.00  0.00     0.216 C 
ATOM     24  O3  IDS d 502     -16.437  60.329 173.231  0.00  0.00    -0.218 OA
ATOM     25  C2  IDS d 502     -15.482  58.342 174.142  0.00  0.00     0.229 C 
ATOM     26  C1  IDS d 502     -14.496  58.045 173.016  0.00  0.00     0.301 C 
ATOM     27  O1  IDS d 502     -13.931  59.262 172.605  0.00  0.00    -0.187 OA
ATOM     28  O5  IDS d 502     -15.117  57.354 171.961  0.00  0.00    -0.316 OA
ATOM     29  C5  IDS d 502     -16.213  58.029 171.375  0.00  0.00     0.234 C 
BRANCH  25  30
ATOM     30  O2  IDS d 502     -15.856  57.123 174.725  0.00  0.00    -0.232 OA
BRANCH  30  31
ATOM     31  S   IDS d 502     -15.088  56.308 175.818  0.00  0.00     0.252 S 
ATOM     32  O3S IDS d 502     -13.772  56.892 175.853  0.00  0.00    -0.572 OA
ATOM     33  O2S IDS d 502     -15.105  54.935 175.371  0.00  0.00    -0.572 OA
ATOM     34  O1S IDS d 502     -15.792  56.488 177.057  0.00  0.00    -0.572 OA
ENDBRANCH  30  31
ENDBRANCH  25  30
BRANCH  29  35
ATOM     35  C6  IDS d 502     -16.670  57.316 170.110  0.00  0.00     0.216 C 
ATOM     36  O61 IDS d 502     -17.775  57.489 169.658  0.00  0.00    -0.646 OA
ATOM     37  O62 IDS d 502     -15.929  56.555 169.518  0.00  0.00    -0.646 OA
ENDBRANCH  29  35
ENDBRANCH  21  22
ENDBRANCH  13  21
BRANCH  15  38
ATOM     38  C6  SGN d 503     -19.781  54.174 170.578  0.00  0.00     0.198 C 
BRANCH  38  39
ATOM     39  O6  SGN d 503     -20.359  55.198 169.798  0.00  0.00    -0.235 OA
BRANCH  39  40
ATOM     40  S2  SGN d 503     -20.856  55.048 168.336  0.00  0.00     0.252 S 
ATOM     41  O4S SGN d 503     -19.905  55.664 167.475  0.00  0.00    -0.572 OA
ATOM     42  O5S SGN d 503     -20.985  53.618 168.073  0.00  0.00    -0.572 OA
ATOM     43  O6S SGN d 503     -22.067  55.772 168.318  0.00  0.00    -0.572 OA
ENDBRANCH  39  40
ENDBRANCH  38  39
ENDBRANCH  15  38
ENDBRANCH   8   9
ENDBRANCH   5   8
BRANCH   1  44
ATOM     44  O2  IDS d 504     -17.317  51.638 175.966  0.00  0.00    -0.233 OA
BRANCH  44  45
ATOM     45  S   IDS d 504     -17.662  52.281 177.322  0.00  0.00     0.252 S 
ATOM     46  O3S IDS d 504     -17.388  53.654 177.119  0.00  0.00    -0.572 OA
ATOM     47  O2S IDS d 504     -16.855  51.646 178.322  0.00  0.00    -0.572 OA
ATOM     48  O1S IDS d 504     -19.043  52.043 177.537  0.00  0.00    -0.572 OA
ENDBRANCH  44  45
ENDBRANCH   1  44
BRANCH   4  49
ATOM     49  C6  IDS d 504     -15.587  51.939 171.364  0.00  0.00     0.216 C 
ATOM     50  O62 IDS d 504     -15.103  51.024 170.694  0.00  0.00    -0.646 OA
ATOM     51  O61 IDS d 504     -15.126  53.064 171.215  0.00  0.00    -0.646 OA
ENDBRANCH   4  49
BRANCH   7  52
ATOM     52  O4  IDS d 504     -15.442  50.472 174.035  0.00  0.00    -0.326 OA
BRANCH  52  53
ATOM     53  C1  SGN d 505     -15.056  49.242 174.587  0.00  0.00     0.263 C 
ATOM     54  C2  SGN d 505     -13.805  49.379 175.432  0.00  0.00     0.207 C 
ATOM     55  C3  SGN d 505     -12.592  49.748 174.557  0.00  0.00     0.210 C 
ATOM     56  C4  SGN d 505     -12.484  48.620 173.491  0.00  0.00     0.180 C 
ATOM     57  O3  SGN d 505     -11.432  49.770 175.380  0.00  0.00    -0.218 OA
ATOM     58  C5  SGN d 505     -13.770  48.625 172.731  0.00  0.00     0.179 C 
ATOM     59  O5  SGN d 505     -14.833  48.302 173.574  0.00  0.00    -0.327 OA
BRANCH  54  60
ATOM     60  N   SGN d 505     -14.076  50.300 176.561  0.00  0.00    -0.162 NA
BRANCH  60  61
ATOM     61  S1  SGN d 505     -14.115  49.643 178.103  0.00  0.00     0.227 S 
ATOM     62  O3S SGN d 505     -14.413  50.705 178.997  0.00  0.00    -0.577 OA
ATOM     63  O1S SGN d 505     -15.119  48.600 178.109  0.00  0.00    -0.577 OA
ATOM     64  O2S SGN d 505     -12.784  49.128 178.322  0.00  0.00    -0.577 OA
ENDBRANCH  60  61
ENDBRANCH  54  60
BRANCH  56  65
ATOM     65  O4  SGN d 505     -11.466  48.789 172.526  0.00  0.00    -0.326 OA
BRANCH  65  66
ATOM     66  C1  IDS d 506     -10.118  48.603 172.793  0.00  0.00     0.269 C 
ATOM     67  C2  IDS d 506      -9.322  48.812 171.496  0.00  0.00     0.226 C 
ATOM     68  C3  IDS d 506      -7.856  48.307 171.587  0.00  0.00     0.219 C 
ATOM     69  O3  IDS d 506      -7.063  49.323 172.195  0.00  0.00    -0.218 OA
ATOM     70  C4  IDS d 506      -7.697  47.006 172.402  0.00  0.00     0.223 C 
ATOM     71  O4  IDS d 506      -8.028  45.935 171.550  0.00  0.00    -0.217 OA
ATOM     72  C5  IDS d 506      -8.631  47.009 173.617  0.00  0.00     0.237 C 
ATOM     73  O5  IDS d 506      -9.934  47.276 173.216  0.00  0.00    -0.318 OA
BRANCH  67  74
ATOM     74  O2  IDS d 506      -9.933  48.110 170.432  0.00  0.00    -0.233 OA
BRANCH  74  75
ATOM     75  S   IDS d 506      -9.856  48.420 168.875  0.00  0.00     0.252 S 
ATOM     76  O1S IDS d 506      -9.502  47.176 168.265  0.00  0.00    -0.572 OA
ATOM     77  O2S IDS d 506     -11.153  48.857 168.443  0.00  0.00    -0.572 OA
ATOM     78  O3S IDS d 506      -8.835  49.436 168.733  0.00  0.00    -0.572 OA
ENDBRANCH  74  75
ENDBRANCH  67  74
BRANCH  72  79
ATOM     79  C6  IDS d 506      -8.617  45.766 174.487  0.00  0.00     0.217 C 
ATOM     80  O61 IDS d 506      -7.593  45.441 175.072  0.00  0.00    -0.646 OA
ATOM     81  O62 IDS d 506      -9.600  45.058 174.618  0.00  0.00    -0.646 OA
ENDBRANCH  72  79
ENDBRANCH  65  66
ENDBRANCH  56  65
BRANCH  58  82
ATOM     82  C6  SGN d 505     -13.794  47.622 171.624  0.00  0.00     0.198 C 
BRANCH  82  83
ATOM     83  O6  SGN d 505     -14.732  48.100 170.721  0.00  0.00    -0.235 OA
BRANCH  83  84
ATOM     84  S2  SGN d 505     -15.157  47.459 169.408  0.00  0.00     0.252 S 
ATOM     85  O6S SGN d 505     -14.726  48.353 168.342  0.00  0.00    -0.572 OA
ATOM     86  O4S SGN d 505     -14.471  46.187 169.381  0.00  0.00    -0.572 OA
ATOM     87  O5S SGN d 505     -16.593  47.362 169.501  0.00  0.00    -0.572 OA
ENDBRANCH  83  84
ENDBRANCH  82  83
ENDBRANCH  58  82
ENDBRANCH  52  53
ENDBRANCH   7  52
TORSDOF 27

ENDMDL
MODEL 52
REMARK VINA RESULT:       4.8      4.068     10.842
REMARK  27 active torsions:
REMARK  status: ('A' for Active; 'I' for Inactive)
REMARK    1  A    between atoms: C2_1  and  O2_78 
REMARK    2  A    between atoms: C1_3  and  O4_50 
REMARK    3  A    between atoms: O4_5  and  C4_58 
REMARK    4  A    between atoms: O4_5  and  C1_27 
REMARK    5  A    between atoms: C2_6  and  N_39 
REMARK    6  A    between atoms: S1_9  and  N_39 
REMARK    7  A    between atoms: C6_10  and  C5_52 
REMARK    8  A    between atoms: C2_12  and  N_73 
REMARK    9  A    between atoms: C2_19  and  O2_24 
REMARK   10  A    between atoms: C2_21  and  O2_44 
REMARK   11  A    between atoms: S2_23  and  O6_65 
REMARK   12  A    between atoms: O2_24  and  S_54 
REMARK   13  A    between atoms: C1_28  and  O4_60 
REMARK   14  A    between atoms: C5_29  and  C6_38 
REMARK   15  A    between atoms: C5_30  and  C6_33 
REMARK   16  A    between atoms: S1_34  and  N_73 
REMARK   17  A    between atoms: C5_41  and  C6_46 
REMARK   18  A    between atoms: S_43  and  O2_44 
REMARK   19  A    between atoms: C6_46  and  O6_72 
REMARK   20  A    between atoms: O4_50  and  C4_71 
REMARK   21  A    between atoms: C1_56  and  O4_64 
REMARK   22  A    between atoms: O4_60  and  C4_83 
REMARK   23  A    between atoms: C4_61  and  O4_64 
REMARK   24  A    between atoms: S2_63  and  O6_72 
REMARK   25  A    between atoms: O6_65  and  C6_67 
REMARK   26  A    between atoms: C6_67  and  C5_75 
REMARK   27  A    between atoms: S_76  and  O2_78 
ROOT
ATOM      1  C2  IDS d 504     -19.651  46.625 175.504  0.00  0.00     0.226 C 
ATOM      2  O3  IDS d 504     -19.796  47.346 177.843  0.00  0.00    -0.218 OA
ATOM      3  O5  IDS d 504     -17.794  48.136 175.052  0.00  0.00    -0.318 OA
ATOM      4  C5  IDS d 504     -18.143  49.004 176.107  0.00  0.00     0.234 C 
ATOM      5  C1  IDS d 504     -18.161  46.769 175.268  0.00  0.00     0.269 C 
ATOM      6  C3  IDS d 504     -20.205  47.690 176.526  0.00  0.00     0.216 C 
ATOM      7  C4  IDS d 504     -19.663  49.082 176.239  0.00  0.00     0.189 C 
ENDROOT
BRANCH   5   8
ATOM      8  O4  SGN d 503     -17.487  46.198 176.352  0.00  0.00    -0.326 OA
BRANCH   8   9
ATOM      9  C4  SGN d 503     -16.288  45.581 176.013  0.00  0.00     0.180 C 
ATOM     10  C3  SGN d 503     -16.470  44.875 174.672  0.00  0.00     0.210 C 
ATOM     11  C2  SGN d 503     -15.111  44.392 174.198  0.00  0.00     0.207 C 
ATOM     12  O3  SGN d 503     -17.332  43.770 174.869  0.00  0.00    -0.218 OA
ATOM     13  C1  SGN d 503     -14.081  45.530 174.179  0.00  0.00     0.263 C 
ATOM     14  O5  SGN d 503     -13.993  46.105 175.459  0.00  0.00    -0.327 OA
ATOM     15  C5  SGN d 503     -15.194  46.657 175.901  0.00  0.00     0.179 C 
BRANCH  11  16
ATOM     16  N   SGN d 503     -15.199  43.763 172.891  0.00  0.00    -0.162 NA
BRANCH  16  17
ATOM     17  S1  SGN d 503     -14.844  42.178 172.793  0.00  0.00     0.227 S 
ATOM     18  O1S SGN d 503     -14.162  41.839 174.028  0.00  0.00    -0.577 OA
ATOM     19  O2S SGN d 503     -16.095  41.439 172.635  0.00  0.00    -0.577 OA
ATOM     20  O3S SGN d 503     -13.973  42.105 171.642  0.00  0.00    -0.577 OA
ENDBRANCH  16  17
ENDBRANCH  11  16
BRANCH  13  21
ATOM     21  O4  IDS d 502     -14.409  46.486 173.208  0.00  0.00    -0.326 OA
BRANCH  21  22
ATOM     22  C4  IDS d 502     -13.440  46.666 172.208  0.00  0.00     0.189 C 
ATOM     23  C3  IDS d 502     -14.051  46.343 170.831  0.00  0.00     0.216 C 
ATOM     24  O3  IDS d 502     -13.021  46.331 169.862  0.00  0.00    -0.218 OA
ATOM     25  C2  IDS d 502     -15.075  47.407 170.423  0.00  0.00     0.229 C 
ATOM     26  C1  IDS d 502     -14.530  48.820 170.608  0.00  0.00     0.301 C 
ATOM     27  O1  IDS d 502     -13.587  49.055 169.596  0.00  0.00    -0.187 OA
ATOM     28  O5  IDS d 502     -13.997  48.999 171.896  0.00  0.00    -0.316 OA
ATOM     29  C5  IDS d 502     -12.948  48.112 172.231  0.00  0.00     0.234 C 
BRANCH  25  30
ATOM     30  O2  IDS d 502     -16.189  47.257 171.262  0.00  0.00    -0.232 OA
BRANCH  30  31
ATOM     31  S   IDS d 502     -17.693  47.499 170.909  0.00  0.00     0.252 S 
ATOM     32  O3S IDS d 502     -17.728  47.559 169.471  0.00  0.00    -0.572 OA
ATOM     33  O2S IDS d 502     -18.055  48.740 171.553  0.00  0.00    -0.572 OA
ATOM     34  O1S IDS d 502     -18.436  46.381 171.421  0.00  0.00    -0.572 OA
ENDBRANCH  30  31
ENDBRANCH  25  30
BRANCH  29  35
ATOM     35  C6  IDS d 502     -12.289  48.526 173.539  0.00  0.00     0.216 C 
ATOM     36  O61 IDS d 502     -12.579  49.563 174.086  0.00  0.00    -0.646 OA
ATOM     37  O62 IDS d 502     -11.455  47.820 174.071  0.00  0.00    -0.646 OA
ENDBRANCH  29  35
ENDBRANCH  21  22
ENDBRANCH  13  21
BRANCH  15  38
ATOM     38  C6  SGN d 503     -14.846  47.328 177.202  0.00  0.00     0.198 C 
BRANCH  38  39
ATOM     39  O6  SGN d 503     -14.125  48.502 176.895  0.00  0.00    -0.235 OA
BRANCH  39  40
ATOM     40  S2  SGN d 503     -13.062  49.173 177.805  0.00  0.00     0.252 S 
ATOM     41  O4S SGN d 503     -13.225  48.671 179.127  0.00  0.00    -0.572 OA
ATOM     42  O5S SGN d 503     -11.754  48.840 177.252  0.00  0.00    -0.572 OA
ATOM     43  O6S SGN d 503     -13.400  50.542 177.762  0.00  0.00    -0.572 OA
ENDBRANCH  39  40
ENDBRANCH  38  39
ENDBRANCH  15  38
ENDBRANCH   8   9
ENDBRANCH   5   8
BRANCH   1  44
ATOM     44  O2  IDS d 504     -20.317  46.744 174.249  0.00  0.00    -0.233 OA
BRANCH  44  45
ATOM     45  S   IDS d 504     -21.262  45.711 173.607  0.00  0.00     0.252 S 
ATOM     46  O3S IDS d 504     -22.364  45.672 174.493  0.00  0.00    -0.572 OA
ATOM     47  O2S IDS d 504     -20.540  44.478 173.487  0.00  0.00    -0.572 OA
ATOM     48  O1S IDS d 504     -21.620  46.232 172.338  0.00  0.00    -0.572 OA
ENDBRANCH  44  45
ENDBRANCH   1  44
BRANCH   4  49
ATOM     49  C6  IDS d 504     -17.431  50.357 175.947  0.00  0.00     0.216 C 
ATOM     50  O62 IDS d 504     -16.990  50.720 174.854  0.00  0.00    -0.646 OA
ATOM     51  O61 IDS d 504     -17.270  51.101 176.906  0.00  0.00    -0.646 OA
ENDBRANCH   4  49
BRANCH   7  52
ATOM     52  O4  IDS d 504     -20.234  49.569 175.033  0.00  0.00    -0.326 OA
BRANCH  52  53
ATOM     53  C1  SGN d 505     -21.325  50.427 175.229  0.00  0.00     0.263 C 
ATOM     54  C2  SGN d 505     -22.226  50.469 174.011  0.00  0.00     0.207 C 
ATOM     55  C3  SGN d 505     -21.501  51.119 172.816  0.00  0.00     0.210 C 
ATOM     56  C4  SGN d 505     -21.072  52.533 173.304  0.00  0.00     0.180 C 
ATOM     57  O3  SGN d 505     -22.416  51.220 171.733  0.00  0.00    -0.218 OA
ATOM     58  C5  SGN d 505     -20.179  52.326 174.484  0.00  0.00     0.179 C 
ATOM     59  O5  SGN d 505     -20.882  51.721 175.525  0.00  0.00    -0.327 OA
BRANCH  54  60
ATOM     60  N   SGN d 505     -22.773  49.115 173.760  0.00  0.00    -0.162 NA
BRANCH  60  61
ATOM     61  S1  SGN d 505     -24.394  48.860 174.101  0.00  0.00     0.227 S 
ATOM     62  O3S SGN d 505     -24.477  48.503 175.473  0.00  0.00    -0.577 OA
ATOM     63  O1S SGN d 505     -25.105  50.082 173.791  0.00  0.00    -0.577 OA
ATOM     64  O2S SGN d 505     -24.786  47.762 173.248  0.00  0.00    -0.577 OA
ENDBRANCH  60  61
ENDBRANCH  54  60
BRANCH  56  65
ATOM     65  O4  SGN d 505     -20.321  53.294 172.381  0.00  0.00    -0.326 OA
BRANCH  65  66
ATOM     66  C1  IDS d 506     -20.872  53.913 171.270  0.00  0.00     0.269 C 
ATOM     67  C2  IDS d 506     -19.810  54.814 170.625  0.00  0.00     0.226 C 
ATOM     68  C3  IDS d 506     -20.395  55.809 169.585  0.00  0.00     0.219 C 
ATOM     69  O3  IDS d 506     -20.529  55.134 168.337  0.00  0.00    -0.218 OA
ATOM     70  C4  IDS d 506     -21.772  56.383 169.982  0.00  0.00     0.223 C 
ATOM     71  O4  IDS d 506     -21.540  57.440 170.884  0.00  0.00    -0.217 OA
ATOM     72  C5  IDS d 506     -22.634  55.310 170.654  0.00  0.00     0.237 C 
ATOM     73  O5  IDS d 506     -21.936  54.723 171.702  0.00  0.00    -0.318 OA
BRANCH  67  74
ATOM     74  O2  IDS d 506     -19.163  55.590 171.615  0.00  0.00    -0.233 OA
BRANCH  74  75
ATOM     75  S   IDS d 506     -17.626  55.589 172.018  0.00  0.00     0.252 S 
ATOM     76  O1S IDS d 506     -17.237  54.212 171.997  0.00  0.00    -0.572 OA
ATOM     77  O2S IDS d 506     -16.906  56.343 171.032  0.00  0.00    -0.572 OA
ATOM     78  O3S IDS d 506     -17.572  56.177 173.339  0.00  0.00    -0.572 OA
ENDBRANCH  74  75
ENDBRANCH  67  74
BRANCH  72  79
ATOM     79  C6  IDS d 506     -24.003  55.746 171.143  0.00  0.00     0.217 C 
ATOM     80  O61 IDS d 506     -24.918  55.897 170.344  0.00  0.00    -0.646 OA
ATOM     81  O62 IDS d 506     -24.228  55.969 172.319  0.00  0.00    -0.646 OA
ENDBRANCH  72  79
ENDBRANCH  65  66
ENDBRANCH  56  65
BRANCH  58  82
ATOM     82  C6  SGN d 505     -19.636  53.606 175.032  0.00  0.00     0.198 C 
BRANCH  82  83
ATOM     83  O6  SGN d 505     -20.720  54.234 175.627  0.00  0.00    -0.235 OA
BRANCH  83  84
ATOM     84  S2  SGN d 505     -20.963  55.731 175.750  0.00  0.00     0.252 S 
ATOM     85  O6S SGN d 505     -22.311  55.899 176.277  0.00  0.00    -0.572 OA
ATOM     86  O4S SGN d 505     -19.944  56.195 176.664  0.00  0.00    -0.572 OA
ATOM     87  O5S SGN d 505     -20.832  56.231 174.404  0.00  0.00    -0.572 OA
ENDBRANCH  83  84
ENDBRANCH  82  83
ENDBRANCH  58  82
ENDBRANCH  52  53
ENDBRANCH   7  52
TORSDOF 27

ENDMDL
MODEL 53
REMARK VINA RESULT:       4.8      3.131      9.257
REMARK  27 active torsions:
REMARK  status: ('A' for Active; 'I' for Inactive)
REMARK    1  A    between atoms: C2_1  and  O2_78 
REMARK    2  A    between atoms: C1_3  and  O4_50 
REMARK    3  A    between atoms: O4_5  and  C4_58 
REMARK    4  A    between atoms: O4_5  and  C1_27 
REMARK    5  A    between atoms: C2_6  and  N_39 
REMARK    6  A    between atoms: S1_9  and  N_39 
REMARK    7  A    between atoms: C6_10  and  C5_52 
REMARK    8  A    between atoms: C2_12  and  N_73 
REMARK    9  A    between atoms: C2_19  and  O2_24 
REMARK   10  A    between atoms: C2_21  and  O2_44 
REMARK   11  A    between atoms: S2_23  and  O6_65 
REMARK   12  A    between atoms: O2_24  and  S_54 
REMARK   13  A    between atoms: C1_28  and  O4_60 
REMARK   14  A    between atoms: C5_29  and  C6_38 
REMARK   15  A    between atoms: C5_30  and  C6_33 
REMARK   16  A    between atoms: S1_34  and  N_73 
REMARK   17  A    between atoms: C5_41  and  C6_46 
REMARK   18  A    between atoms: S_43  and  O2_44 
REMARK   19  A    between atoms: C6_46  and  O6_72 
REMARK   20  A    between atoms: O4_50  and  C4_71 
REMARK   21  A    between atoms: C1_56  and  O4_64 
REMARK   22  A    between atoms: O4_60  and  C4_83 
REMARK   23  A    between atoms: C4_61  and  O4_64 
REMARK   24  A    between atoms: S2_63  and  O6_72 
REMARK   25  A    between atoms: O6_65  and  C6_67 
REMARK   26  A    between atoms: C6_67  and  C5_75 
REMARK   27  A    between atoms: S_76  and  O2_78 
ROOT
ATOM      1  C2  IDS d 504     -18.295  46.185 172.679  0.00  0.00     0.226 C 
ATOM      2  O3  IDS d 504     -19.580  44.979 174.385  0.00  0.00    -0.218 OA
ATOM      3  O5  IDS d 504     -16.395  46.476 174.177  0.00  0.00    -0.318 OA
ATOM      4  C5  IDS d 504     -17.190  46.353 175.334  0.00  0.00     0.234 C 
ATOM      5  C1  IDS d 504     -16.889  45.753 173.044  0.00  0.00     0.269 C 
ATOM      6  C3  IDS d 504     -19.240  46.286 173.938  0.00  0.00     0.216 C 
ATOM      7  C4  IDS d 504     -18.558  46.992 175.100  0.00  0.00     0.189 C 
ENDROOT
BRANCH   5   8
ATOM      8  O4  SGN d 503     -16.893  44.370 173.252  0.00  0.00    -0.326 OA
BRANCH   8   9
ATOM      9  C4  SGN d 503     -15.639  43.778 173.152  0.00  0.00     0.180 C 
ATOM     10  C3  SGN d 503     -14.729  44.703 172.347  0.00  0.00     0.210 C 
ATOM     11  C2  SGN d 503     -13.312  44.166 172.426  0.00  0.00     0.207 C 
ATOM     12  O3  SGN d 503     -15.173  44.696 171.003  0.00  0.00    -0.218 OA
ATOM     13  C1  SGN d 503     -12.868  43.952 173.881  0.00  0.00     0.263 C 
ATOM     14  O5  SGN d 503     -13.771  43.087 174.524  0.00  0.00    -0.327 OA
ATOM     15  C5  SGN d 503     -15.073  43.581 174.570  0.00  0.00     0.179 C 
BRANCH  11  16
ATOM     16  N   SGN d 503     -12.377  45.036 171.733  0.00  0.00    -0.162 NA
BRANCH  16  17
ATOM     17  S1  SGN d 503     -11.218  44.331 170.835  0.00  0.00     0.227 S 
ATOM     18  O1S SGN d 503     -11.901  43.426 169.929  0.00  0.00    -0.577 OA
ATOM     19  O2S SGN d 503     -10.494  45.380 170.119  0.00  0.00    -0.577 OA
ATOM     20  O3S SGN d 503     -10.418  43.632 171.815  0.00  0.00    -0.577 OA
ENDBRANCH  16  17
ENDBRANCH  11  16
BRANCH  13  21
ATOM     21  O4  IDS d 502     -12.759  45.174 174.557  0.00  0.00    -0.326 OA
BRANCH  21  22
ATOM     22  C4  IDS d 502     -11.484  45.447 175.078  0.00  0.00     0.189 C 
ATOM     23  C3  IDS d 502     -10.866  46.645 174.332  0.00  0.00     0.216 C 
ATOM     24  O3  IDS d 502      -9.514  46.782 174.723  0.00  0.00    -0.218 OA
ATOM     25  C2  IDS d 502     -11.596  47.945 174.685  0.00  0.00     0.229 C 
ATOM     26  C1  IDS d 502     -11.777  48.105 176.191  0.00  0.00     0.301 C 
ATOM     27  O1  IDS d 502     -10.528  48.423 176.744  0.00  0.00    -0.187 OA
ATOM     28  O5  IDS d 502     -12.344  46.953 176.763  0.00  0.00    -0.316 OA
ATOM     29  C5  IDS d 502     -11.601  45.766 176.566  0.00  0.00     0.234 C 
BRANCH  25  30
ATOM     30  O2  IDS d 502     -12.868  47.881 174.098  0.00  0.00    -0.232 OA
BRANCH  30  31
ATOM     31  S   IDS d 502     -13.670  49.040 173.420  0.00  0.00     0.252 S 
ATOM     32  O3S IDS d 502     -13.693  48.702 172.021  0.00  0.00    -0.572 OA
ATOM     33  O2S IDS d 502     -12.938  50.251 173.715  0.00  0.00    -0.572 OA
ATOM     34  O1S IDS d 502     -14.985  49.043 173.997  0.00  0.00    -0.572 OA
ENDBRANCH  30  31
ENDBRANCH  25  30
BRANCH  29  35
ATOM     35  C6  IDS d 502     -12.168  44.631 177.406  0.00  0.00     0.216 C 
ATOM     36  O61 IDS d 502     -13.281  44.688 177.868  0.00  0.00    -0.646 OA
ATOM     37  O62 IDS d 502     -11.514  43.630 177.630  0.00  0.00    -0.646 OA
ENDBRANCH  29  35
ENDBRANCH  21  22
ENDBRANCH  13  21
BRANCH  15  38
ATOM     38  C6  SGN d 503     -15.828  42.584 175.407  0.00  0.00     0.198 C 
BRANCH  38  39
ATOM     39  O6  SGN d 503     -16.438  43.292 176.464  0.00  0.00    -0.235 OA
BRANCH  39  40
ATOM     40  S2  SGN d 503     -17.689  42.830 177.257  0.00  0.00     0.252 S 
ATOM     41  O4S SGN d 503     -18.522  42.080 176.379  0.00  0.00    -0.572 OA
ATOM     42  O5S SGN d 503     -17.213  42.026 178.378  0.00  0.00    -0.572 OA
ATOM     43  O6S SGN d 503     -18.325  44.038 177.614  0.00  0.00    -0.572 OA
ENDBRANCH  39  40
ENDBRANCH  38  39
ENDBRANCH  15  38
ENDBRANCH   8   9
ENDBRANCH   5   8
BRANCH   1  44
ATOM     44  O2  IDS d 504     -18.218  47.442 172.011  0.00  0.00    -0.233 OA
BRANCH  44  45
ATOM     45  S   IDS d 504     -19.036  47.882 170.783  0.00  0.00     0.252 S 
ATOM     46  O3S IDS d 504     -18.162  47.641 169.696  0.00  0.00    -0.572 OA
ATOM     47  O2S IDS d 504     -19.397  49.257 170.972  0.00  0.00    -0.572 OA
ATOM     48  O1S IDS d 504     -20.177  47.044 170.741  0.00  0.00    -0.572 OA
ENDBRANCH  44  45
ENDBRANCH   1  44
BRANCH   4  49
ATOM     49  C6  IDS d 504     -16.430  46.873 176.566  0.00  0.00     0.216 C 
ATOM     50  O62 IDS d 504     -17.022  47.139 177.614  0.00  0.00    -0.646 OA
ATOM     51  O61 IDS d 504     -15.219  47.051 176.529  0.00  0.00    -0.646 OA
ENDBRANCH   4  49
BRANCH   7  52
ATOM     52  O4  IDS d 504     -18.407  48.369 174.788  0.00  0.00    -0.326 OA
BRANCH  52  53
ATOM     53  C1  SGN d 505     -19.166  49.222 175.602  0.00  0.00     0.263 C 
ATOM     54  C2  SGN d 505     -20.030  50.156 174.778  0.00  0.00     0.207 C 
ATOM     55  C3  SGN d 505     -19.159  51.145 173.980  0.00  0.00     0.210 C 
ATOM     56  C4  SGN d 505     -18.295  51.891 175.037  0.00  0.00     0.180 C 
ATOM     57  O3  SGN d 505     -20.015  52.056 173.303  0.00  0.00    -0.218 OA
ATOM     58  C5  SGN d 505     -17.491  50.849 175.745  0.00  0.00     0.179 C 
ATOM     59  O5  SGN d 505     -18.329  49.974 176.434  0.00  0.00    -0.327 OA
BRANCH  54  60
ATOM     60  N   SGN d 505     -20.983  49.357 173.972  0.00  0.00    -0.162 NA
BRANCH  60  61
ATOM     61  S1  SGN d 505     -22.438  48.934 174.689  0.00  0.00     0.227 S 
ATOM     62  O3S SGN d 505     -23.435  49.018 173.682  0.00  0.00    -0.577 OA
ATOM     63  O1S SGN d 505     -22.288  47.598 175.227  0.00  0.00    -0.577 OA
ATOM     64  O2S SGN d 505     -22.646  49.923 175.720  0.00  0.00    -0.577 OA
ENDBRANCH  60  61
ENDBRANCH  54  60
BRANCH  56  65
ATOM     65  O4  SGN d 505     -17.359  52.813 174.518  0.00  0.00    -0.326 OA
BRANCH  65  66
ATOM     66  C1  IDS d 506     -17.684  54.107 174.143  0.00  0.00     0.269 C 
ATOM     67  C2  IDS d 506     -16.432  54.789 173.573  0.00  0.00     0.226 C 
ATOM     68  C3  IDS d 506     -16.580  56.330 173.433  0.00  0.00     0.219 C 
ATOM     69  O3  IDS d 506     -17.249  56.611 172.206  0.00  0.00    -0.218 OA
ATOM     70  C4  IDS d 506     -17.373  56.984 174.585  0.00  0.00     0.223 C 
ATOM     71  O4  IDS d 506     -16.481  57.153 175.663  0.00  0.00    -0.217 OA
ATOM     72  C5  IDS d 506     -18.541  56.092 175.016  0.00  0.00     0.237 C 
ATOM     73  O5  IDS d 506     -18.085  54.809 175.293  0.00  0.00    -0.318 OA
BRANCH  67  74
ATOM     74  O2  IDS d 506     -15.324  54.560 174.421  0.00  0.00    -0.233 OA
BRANCH  74  75
ATOM     75  S   IDS d 506     -13.935  53.877 174.062  0.00  0.00     0.252 S 
ATOM     76  O1S IDS d 506     -13.588  53.110 175.219  0.00  0.00    -0.572 OA
ATOM     77  O2S IDS d 506     -14.136  53.028 172.922  0.00  0.00    -0.572 OA
ATOM     78  O3S IDS d 506     -13.021  54.970 173.807  0.00  0.00    -0.572 OA
ENDBRANCH  74  75
ENDBRANCH  67  74
BRANCH  72  79
ATOM     79  C6  IDS d 506     -19.383  56.588 176.176  0.00  0.00     0.217 C 
ATOM     80  O61 IDS d 506     -20.072  55.803 176.813  0.00  0.00    -0.646 OA
ATOM     81  O62 IDS d 506     -19.413  57.764 176.497  0.00  0.00    -0.646 OA
ENDBRANCH  72  79
ENDBRANCH  65  66
ENDBRANCH  56  65
BRANCH  58  82
ATOM     82  C6  SGN d 505     -16.560  51.426 176.761  0.00  0.00     0.198 C 
BRANCH  82  83
ATOM     83  O6  SGN d 505     -15.805  50.354 177.213  0.00  0.00    -0.235 OA
BRANCH  83  84
ATOM     84  S2  SGN d 505     -14.717  50.376 178.276  0.00  0.00     0.252 S 
ATOM     85  O6S SGN d 505     -15.166  51.282 179.324  0.00  0.00    -0.572 OA
ATOM     86  O4S SGN d 505     -14.616  49.006 178.727  0.00  0.00    -0.572 OA
ATOM     87  O5S SGN d 505     -13.548  50.865 177.587  0.00  0.00    -0.572 OA
ENDBRANCH  83  84
ENDBRANCH  82  83
ENDBRANCH  58  82
ENDBRANCH  52  53
ENDBRANCH   7  52
TORSDOF 27

ENDMDL
MODEL 54
REMARK VINA RESULT:       4.9      4.166      7.992
REMARK  27 active torsions:
REMARK  status: ('A' for Active; 'I' for Inactive)
REMARK    1  A    between atoms: C2_1  and  O2_78 
REMARK    2  A    between atoms: C1_3  and  O4_50 
REMARK    3  A    between atoms: O4_5  and  C4_58 
REMARK    4  A    between atoms: O4_5  and  C1_27 
REMARK    5  A    between atoms: C2_6  and  N_39 
REMARK    6  A    between atoms: S1_9  and  N_39 
REMARK    7  A    between atoms: C6_10  and  C5_52 
REMARK    8  A    between atoms: C2_12  and  N_73 
REMARK    9  A    between atoms: C2_19  and  O2_24 
REMARK   10  A    between atoms: C2_21  and  O2_44 
REMARK   11  A    between atoms: S2_23  and  O6_65 
REMARK   12  A    between atoms: O2_24  and  S_54 
REMARK   13  A    between atoms: C1_28  and  O4_60 
REMARK   14  A    between atoms: C5_29  and  C6_38 
REMARK   15  A    between atoms: C5_30  and  C6_33 
REMARK   16  A    between atoms: S1_34  and  N_73 
REMARK   17  A    between atoms: C5_41  and  C6_46 
REMARK   18  A    between atoms: S_43  and  O2_44 
REMARK   19  A    between atoms: C6_46  and  O6_72 
REMARK   20  A    between atoms: O4_50  and  C4_71 
REMARK   21  A    between atoms: C1_56  and  O4_64 
REMARK   22  A    between atoms: O4_60  and  C4_83 
REMARK   23  A    between atoms: C4_61  and  O4_64 
REMARK   24  A    between atoms: S2_63  and  O6_72 
REMARK   25  A    between atoms: O6_65  and  C6_67 
REMARK   26  A    between atoms: C6_67  and  C5_75 
REMARK   27  A    between atoms: S_76  and  O2_78 
ROOT
ATOM      1  C2  IDS d 504     -16.390  50.863 175.977  0.00  0.00     0.226 C 
ATOM      2  O3  IDS d 504     -18.286  49.329 175.716  0.00  0.00    -0.218 OA
ATOM      3  O5  IDS d 504     -16.234  51.234 173.575  0.00  0.00    -0.318 OA
ATOM      4  C5  IDS d 504     -16.859  50.009 173.267  0.00  0.00     0.234 C 
ATOM      5  C1  IDS d 504     -16.645  51.808 174.820  0.00  0.00     0.269 C 
ATOM      6  C3  IDS d 504     -16.866  49.391 175.669  0.00  0.00     0.216 C 
ATOM      7  C4  IDS d 504     -16.445  48.942 174.278  0.00  0.00     0.189 C 
ENDROOT
BRANCH   5   8
ATOM      8  O4  SGN d 503     -17.998  52.159 174.829  0.00  0.00    -0.326 OA
BRANCH   8   9
ATOM      9  C4  SGN d 503     -18.267  53.395 174.253  0.00  0.00     0.180 C 
ATOM     10  C3  SGN d 503     -19.446  53.238 173.296  0.00  0.00     0.210 C 
ATOM     11  C2  SGN d 503     -19.877  54.620 172.838  0.00  0.00     0.207 C 
ATOM     12  O3  SGN d 503     -19.013  52.476 172.185  0.00  0.00    -0.218 OA
ATOM     13  C1  SGN d 503     -20.147  55.551 174.028  0.00  0.00     0.263 C 
ATOM     14  O5  SGN d 503     -19.000  55.624 174.838  0.00  0.00    -0.327 OA
ATOM     15  C5  SGN d 503     -18.619  54.394 175.369  0.00  0.00     0.179 C 
BRANCH  11  16
ATOM     16  N   SGN d 503     -21.040  54.551 171.971  0.00  0.00    -0.162 NA
BRANCH  16  17
ATOM     17  S1  SGN d 503     -20.965  55.334 170.546  0.00  0.00     0.227 S 
ATOM     18  O1S SGN d 503     -22.183  54.995 169.834  0.00  0.00    -0.577 OA
ATOM     19  O2S SGN d 503     -20.868  56.767 170.818  0.00  0.00    -0.577 OA
ATOM     20  O3S SGN d 503     -19.786  54.776 169.924  0.00  0.00    -0.577 OA
ENDBRANCH  16  17
ENDBRANCH  11  16
BRANCH  13  21
ATOM     21  O4  IDS d 502     -21.264  55.121 174.758  0.00  0.00    -0.326 OA
BRANCH  21  22
ATOM     22  C4  IDS d 502     -22.410  55.918 174.606  0.00  0.00     0.189 C 
ATOM     23  C3  IDS d 502     -23.449  55.172 173.749  0.00  0.00     0.216 C 
ATOM     24  O3  IDS d 502     -24.507  56.057 173.435  0.00  0.00    -0.218 OA
ATOM     25  C2  IDS d 502     -24.037  53.981 174.513  0.00  0.00     0.229 C 
ATOM     26  C1  IDS d 502     -24.474  54.370 175.921  0.00  0.00     0.301 C 
ATOM     27  O1  IDS d 502     -25.646  55.133 175.814  0.00  0.00    -0.187 OA
ATOM     28  O5  IDS d 502     -23.450  55.045 176.607  0.00  0.00    -0.316 OA
ATOM     29  C5  IDS d 502     -22.998  56.229 175.980  0.00  0.00     0.234 C 
BRANCH  25  30
ATOM     30  O2  IDS d 502     -23.025  53.016 174.622  0.00  0.00    -0.232 OA
BRANCH  30  31
ATOM     31  S   IDS d 502     -23.033  51.553 174.068  0.00  0.00     0.252 S 
ATOM     32  O3S IDS d 502     -22.129  50.831 174.926  0.00  0.00    -0.572 OA
ATOM     33  O2S IDS d 502     -22.585  51.648 172.698  0.00  0.00    -0.572 OA
ATOM     34  O1S IDS d 502     -24.380  51.067 174.171  0.00  0.00    -0.572 OA
ENDBRANCH  30  31
ENDBRANCH  25  30
BRANCH  29  35
ATOM     35  C6  IDS d 502     -22.062  57.002 176.900  0.00  0.00     0.216 C 
ATOM     36  O61 IDS d 502     -21.259  57.787 176.460  0.00  0.00    -0.646 OA
ATOM     37  O62 IDS d 502     -22.104  56.851 178.105  0.00  0.00    -0.646 OA
ENDBRANCH  29  35
ENDBRANCH  21  22
ENDBRANCH  13  21
BRANCH  15  38
ATOM     38  C6  SGN d 503     -17.480  54.718 176.297  0.00  0.00     0.198 C 
BRANCH  38  39
ATOM     39  O6  SGN d 503     -16.429  55.239 175.513  0.00  0.00    -0.235 OA
BRANCH  39  40
ATOM     40  S2  SGN d 503     -15.366  56.262 175.994  0.00  0.00     0.252 S 
ATOM     41  O4S SGN d 503     -15.745  57.553 175.530  0.00  0.00    -0.572 OA
ATOM     42  O5S SGN d 503     -15.335  56.194 177.452  0.00  0.00    -0.572 OA
ATOM     43  O6S SGN d 503     -14.182  55.844 175.350  0.00  0.00    -0.572 OA
ENDBRANCH  39  40
ENDBRANCH  38  39
ENDBRANCH  15  38
ENDBRANCH   8   9
ENDBRANCH   5   8
BRANCH   1  44
ATOM     44  O2  IDS d 504     -14.996  50.884 176.275  0.00  0.00    -0.233 OA
BRANCH  44  45
ATOM     45  S   IDS d 504     -14.331  51.480 177.529  0.00  0.00     0.252 S 
ATOM     46  O3S IDS d 504     -14.670  52.853 177.465  0.00  0.00    -0.572 OA
ATOM     47  O2S IDS d 504     -12.927  51.201 177.451  0.00  0.00    -0.572 OA
ATOM     48  O1S IDS d 504     -14.930  50.839 178.642  0.00  0.00    -0.572 OA
ENDBRANCH  44  45
ENDBRANCH   1  44
BRANCH   4  49
ATOM     49  C6  IDS d 504     -16.619  49.639 171.793  0.00  0.00     0.216 C 
ATOM     50  O62 IDS d 504     -15.639  50.067 171.180  0.00  0.00    -0.646 OA
ATOM     51  O61 IDS d 504     -17.407  48.924 171.188  0.00  0.00    -0.646 OA
ENDBRANCH   4  49
BRANCH   7  52
ATOM     52  O4  IDS d 504     -15.037  48.761 174.250  0.00  0.00    -0.326 OA
BRANCH  52  53
ATOM     53  C1  SGN d 505     -14.629  47.445 174.504  0.00  0.00     0.263 C 
ATOM     54  C2  SGN d 505     -13.322  47.405 175.272  0.00  0.00     0.207 C 
ATOM     55  C3  SGN d 505     -12.166  47.952 174.412  0.00  0.00     0.210 C 
ATOM     56  C4  SGN d 505     -12.144  47.072 173.129  0.00  0.00     0.180 C 
ATOM     57  O3  SGN d 505     -10.953  47.805 175.139  0.00  0.00    -0.218 OA
ATOM     58  C5  SGN d 505     -13.479  47.233 172.477  0.00  0.00     0.179 C 
ATOM     59  O5  SGN d 505     -14.486  46.737 173.305  0.00  0.00    -0.327 OA
BRANCH  54  60
ATOM     60  N   SGN d 505     -13.505  48.068 176.584  0.00  0.00    -0.162 NA
BRANCH  60  61
ATOM     61  S1  SGN d 505     -14.024  47.119 177.865  0.00  0.00     0.227 S 
ATOM     62  O3S SGN d 505     -15.434  47.010 177.753  0.00  0.00    -0.577 OA
ATOM     63  O1S SGN d 505     -13.347  45.843 177.766  0.00  0.00    -0.577 OA
ATOM     64  O2S SGN d 505     -13.645  47.854 179.049  0.00  0.00    -0.577 OA
ENDBRANCH  60  61
ENDBRANCH  54  60
BRANCH  56  65
ATOM     65  O4  SGN d 505     -11.192  47.442 172.153  0.00  0.00    -0.326 OA
BRANCH  65  66
ATOM     66  C1  IDS d 506      -9.959  46.825 172.012  0.00  0.00     0.269 C 
ATOM     67  C2  IDS d 506      -9.261  47.389 170.765  0.00  0.00     0.226 C 
ATOM     68  C3  IDS d 506      -8.036  46.547 170.313  0.00  0.00     0.219 C 
ATOM     69  O3  IDS d 506      -6.904  46.944 171.082  0.00  0.00    -0.218 OA
ATOM     70  C4  IDS d 506      -8.233  45.025 170.479  0.00  0.00     0.223 C 
ATOM     71  O4  IDS d 506      -8.971  44.574 169.367  0.00  0.00    -0.217 OA
ATOM     72  C5  IDS d 506      -9.000  44.715 171.769  0.00  0.00     0.237 C 
ATOM     73  O5  IDS d 506     -10.177  45.451 171.814  0.00  0.00    -0.318 OA
BRANCH  67  74
ATOM     74  O2  IDS d 506     -10.162  47.420 169.676  0.00  0.00    -0.233 OA
BRANCH  74  75
ATOM     75  S   IDS d 506     -10.321  48.542 168.562  0.00  0.00     0.252 S 
ATOM     76  O1S IDS d 506     -11.447  49.321 168.979  0.00  0.00    -0.572 OA
ATOM     77  O2S IDS d 506      -9.123  49.333 168.550  0.00  0.00    -0.572 OA
ATOM     78  O3S IDS d 506     -10.548  47.829 167.324  0.00  0.00    -0.572 OA
ENDBRANCH  74  75
ENDBRANCH  67  74
BRANCH  72  79
ATOM     79  C6  IDS d 506      -9.309  43.254 172.041  0.00  0.00     0.217 C 
ATOM     80  O61 IDS d 506      -9.188  42.427 171.148  0.00  0.00    -0.646 OA
ATOM     81  O62 IDS d 506      -9.695  42.867 173.130  0.00  0.00    -0.646 OA
ENDBRANCH  72  79
ENDBRANCH  65  66
ENDBRANCH  56  65
BRANCH  58  82
ATOM     82  C6  SGN d 505     -13.590  46.484 171.189  0.00  0.00     0.198 C 
BRANCH  82  83
ATOM     83  O6  SGN d 505     -13.884  47.446 170.234  0.00  0.00    -0.235 OA
BRANCH  83  84
ATOM     84  S2  SGN d 505     -14.591  47.236 168.903  0.00  0.00     0.252 S 
ATOM     85  O6S SGN d 505     -14.598  48.523 168.220  0.00  0.00    -0.572 OA
ATOM     86  O4S SGN d 505     -13.796  46.244 168.216  0.00  0.00    -0.572 OA
ATOM     87  O5S SGN d 505     -15.916  46.796 169.263  0.00  0.00    -0.572 OA
ENDBRANCH  83  84
ENDBRANCH  82  83
ENDBRANCH  58  82
ENDBRANCH  52  53
ENDBRANCH   7  52
TORSDOF 27

ENDMDL
MODEL 55
REMARK VINA RESULT:       4.9      3.486      8.678
REMARK  27 active torsions:
REMARK  status: ('A' for Active; 'I' for Inactive)
REMARK    1  A    between atoms: C2_1  and  O2_78 
REMARK    2  A    between atoms: C1_3  and  O4_50 
REMARK    3  A    between atoms: O4_5  and  C4_58 
REMARK    4  A    between atoms: O4_5  and  C1_27 
REMARK    5  A    between atoms: C2_6  and  N_39 
REMARK    6  A    between atoms: S1_9  and  N_39 
REMARK    7  A    between atoms: C6_10  and  C5_52 
REMARK    8  A    between atoms: C2_12  and  N_73 
REMARK    9  A    between atoms: C2_19  and  O2_24 
REMARK   10  A    between atoms: C2_21  and  O2_44 
REMARK   11  A    between atoms: S2_23  and  O6_65 
REMARK   12  A    between atoms: O2_24  and  S_54 
REMARK   13  A    between atoms: C1_28  and  O4_60 
REMARK   14  A    between atoms: C5_29  and  C6_38 
REMARK   15  A    between atoms: C5_30  and  C6_33 
REMARK   16  A    between atoms: S1_34  and  N_73 
REMARK   17  A    between atoms: C5_41  and  C6_46 
REMARK   18  A    between atoms: S_43  and  O2_44 
REMARK   19  A    between atoms: C6_46  and  O6_72 
REMARK   20  A    between atoms: O4_50  and  C4_71 
REMARK   21  A    between atoms: C1_56  and  O4_64 
REMARK   22  A    between atoms: O4_60  and  C4_83 
REMARK   23  A    between atoms: C4_61  and  O4_64 
REMARK   24  A    between atoms: S2_63  and  O6_72 
REMARK   25  A    between atoms: O6_65  and  C6_67 
REMARK   26  A    between atoms: C6_67  and  C5_75 
REMARK   27  A    between atoms: S_76  and  O2_78 
ROOT
ATOM      1  C2  IDS d 504     -21.168  47.726 174.118  0.00  0.00     0.226 C 
ATOM      2  O3  IDS d 504     -21.983  46.385 172.233  0.00  0.00    -0.218 OA
ATOM      3  O5  IDS d 504     -19.646  48.984 172.691  0.00  0.00    -0.318 OA
ATOM      4  C5  IDS d 504     -19.583  47.961 171.724  0.00  0.00     0.234 C 
ATOM      5  C1  IDS d 504     -20.881  49.037 173.414  0.00  0.00     0.269 C 
ATOM      6  C3  IDS d 504     -20.931  46.476 173.185  0.00  0.00     0.216 C 
ATOM      7  C4  IDS d 504     -19.630  46.594 172.405  0.00  0.00     0.189 C 
ENDROOT
BRANCH   5   8
ATOM      8  O4  SGN d 503     -21.970  49.343 172.592  0.00  0.00    -0.326 OA
BRANCH   8   9
ATOM      9  C4  SGN d 503     -22.382  50.668 172.668  0.00  0.00     0.180 C 
ATOM     10  C3  SGN d 503     -22.421  51.080 174.138  0.00  0.00     0.210 C 
ATOM     11  C2  SGN d 503     -22.655  52.578 174.209  0.00  0.00     0.207 C 
ATOM     12  O3  SGN d 503     -23.492  50.395 174.759  0.00  0.00    -0.218 OA
ATOM     13  C1  SGN d 503     -21.634  53.351 173.361  0.00  0.00     0.263 C 
ATOM     14  O5  SGN d 503     -21.685  52.895 172.032  0.00  0.00    -0.327 OA
ATOM     15  C5  SGN d 503     -21.377  51.543 171.899  0.00  0.00     0.179 C 
BRANCH  11  16
ATOM     16  N   SGN d 503     -22.639  53.052 175.581  0.00  0.00    -0.162 NA
BRANCH  16  17
ATOM     17  S1  SGN d 503     -23.511  54.382 175.929  0.00  0.00     0.227 S 
ATOM     18  O1S SGN d 503     -24.257  54.073 177.134  0.00  0.00    -0.577 OA
ATOM     19  O2S SGN d 503     -22.584  55.496 176.127  0.00  0.00    -0.577 OA
ATOM     20  O3S SGN d 503     -24.365  54.530 174.772  0.00  0.00    -0.577 OA
ENDBRANCH  16  17
ENDBRANCH  11  16
BRANCH  13  21
ATOM     21  O4  IDS d 502     -20.344  53.228 173.896  0.00  0.00    -0.326 OA
BRANCH  21  22
ATOM     22  C4  IDS d 502     -19.756  54.439 174.296  0.00  0.00     0.189 C 
ATOM     23  C3  IDS d 502     -19.124  54.270 175.691  0.00  0.00     0.216 C 
ATOM     24  O3  IDS d 502     -18.715  55.538 176.166  0.00  0.00    -0.218 OA
ATOM     25  C2  IDS d 502     -17.889  53.367 175.628  0.00  0.00     0.229 C 
ATOM     26  C1  IDS d 502     -16.944  53.772 174.501  0.00  0.00     0.301 C 
ATOM     27  O1  IDS d 502     -16.301  54.959 174.884  0.00  0.00    -0.187 OA
ATOM     28  O5  IDS d 502     -17.628  53.898 173.280  0.00  0.00    -0.316 OA
ATOM     29  C5  IDS d 502     -18.683  54.840 173.286  0.00  0.00     0.234 C 
BRANCH  25  30
ATOM     30  O2  IDS d 502     -18.339  52.064 175.369  0.00  0.00    -0.232 OA
BRANCH  30  31
ATOM     31  S   IDS d 502     -18.176  50.797 176.273  0.00  0.00     0.252 S 
ATOM     32  O3S IDS d 502     -17.943  49.716 175.351  0.00  0.00    -0.572 OA
ATOM     33  O2S IDS d 502     -19.411  50.677 177.011  0.00  0.00    -0.572 OA
ATOM     34  O1S IDS d 502     -17.047  51.029 177.131  0.00  0.00    -0.572 OA
ENDBRANCH  30  31
ENDBRANCH  25  30
BRANCH  29  35
ATOM     35  C6  IDS d 502     -19.208  55.069 171.875  0.00  0.00     0.216 C 
ATOM     36  O61 IDS d 502     -19.918  56.010 171.616  0.00  0.00    -0.646 OA
ATOM     37  O62 IDS d 502     -18.920  54.311 170.970  0.00  0.00    -0.646 OA
ENDBRANCH  29  35
ENDBRANCH  21  22
ENDBRANCH  13  21
BRANCH  15  38
ATOM     38  C6  SGN d 503     -21.354  51.304 170.413  0.00  0.00     0.198 C 
BRANCH  38  39
ATOM     39  O6  SGN d 503     -22.467  51.971 169.858  0.00  0.00    -0.235 OA
BRANCH  39  40
ATOM     40  S2  SGN d 503     -22.527  52.601 168.442  0.00  0.00     0.252 S 
ATOM     41  O4S SGN d 503     -22.863  51.578 167.511  0.00  0.00    -0.572 OA
ATOM     42  O5S SGN d 503     -23.538  53.654 168.485  0.00  0.00    -0.572 OA
ATOM     43  O6S SGN d 503     -21.207  53.047 168.217  0.00  0.00    -0.572 OA
ENDBRANCH  39  40
ENDBRANCH  38  39
ENDBRANCH  15  38
ENDBRANCH   8   9
ENDBRANCH   5   8
BRANCH   1  44
ATOM     44  O2  IDS d 504     -20.340  47.648 175.276  0.00  0.00    -0.233 OA
BRANCH  44  45
ATOM     45  S   IDS d 504     -20.805  47.426 176.727  0.00  0.00     0.252 S 
ATOM     46  O3S IDS d 504     -21.764  48.447 176.929  0.00  0.00    -0.572 OA
ATOM     47  O2S IDS d 504     -19.649  47.509 177.571  0.00  0.00    -0.572 OA
ATOM     48  O1S IDS d 504     -21.390  46.136 176.766  0.00  0.00    -0.572 OA
ENDBRANCH  44  45
ENDBRANCH   1  44
BRANCH   4  49
ATOM     49  C6  IDS d 504     -18.385  48.181 170.786  0.00  0.00     0.216 C 
ATOM     50  O62 IDS d 504     -17.474  48.955 171.087  0.00  0.00    -0.646 OA
ATOM     51  O61 IDS d 504     -18.316  47.606 169.707  0.00  0.00    -0.646 OA
ENDBRANCH   4  49
BRANCH   7  52
ATOM     52  O4  IDS d 504     -18.534  46.454 173.297  0.00  0.00    -0.326 OA
BRANCH  52  53
ATOM     53  C1  SGN d 505     -18.017  45.152 173.359  0.00  0.00     0.263 C 
ATOM     54  C2  SGN d 505     -17.301  44.900 174.672  0.00  0.00     0.207 C 
ATOM     55  C3  SGN d 505     -16.032  45.768 174.778  0.00  0.00     0.210 C 
ATOM     56  C4  SGN d 505     -15.169  45.405 173.535  0.00  0.00     0.180 C 
ATOM     57  O3  SGN d 505     -15.350  45.426 175.977  0.00  0.00    -0.218 OA
ATOM     58  C5  SGN d 505     -15.995  45.728 172.332  0.00  0.00     0.179 C 
ATOM     59  O5  SGN d 505     -17.135  44.926 172.296  0.00  0.00    -0.327 OA
BRANCH  54  60
ATOM     60  N   SGN d 505     -18.263  45.043 175.789  0.00  0.00    -0.162 NA
BRANCH  60  61
ATOM     61  S1  SGN d 505     -18.797  43.641 176.535  0.00  0.00     0.227 S 
ATOM     62  O3S SGN d 505     -19.063  43.968 177.890  0.00  0.00    -0.577 OA
ATOM     63  O1S SGN d 505     -19.973  43.187 175.822  0.00  0.00    -0.577 OA
ATOM     64  O2S SGN d 505     -17.693  42.716 176.423  0.00  0.00    -0.577 OA
ENDBRANCH  60  61
ENDBRANCH  54  60
BRANCH  56  65
ATOM     65  O4  SGN d 505     -13.972  46.141 173.388  0.00  0.00    -0.326 OA
BRANCH  65  66
ATOM     66  C1  IDS d 506     -13.102  46.406 174.435  0.00  0.00     0.269 C 
ATOM     67  C2  IDS d 506     -11.877  47.151 173.886  0.00  0.00     0.226 C 
ATOM     68  C3  IDS d 506     -10.690  47.204 174.888  0.00  0.00     0.219 C 
ATOM     69  O3  IDS d 506     -10.904  48.290 175.786  0.00  0.00    -0.218 OA
ATOM     70  C4  IDS d 506     -10.515  45.911 175.713  0.00  0.00     0.223 C 
ATOM     71  O4  IDS d 506      -9.814  44.993 174.908  0.00  0.00    -0.217 OA
ATOM     72  C5  IDS d 506     -11.878  45.326 176.099  0.00  0.00     0.237 C 
ATOM     73  O5  IDS d 506     -12.672  45.179 174.968  0.00  0.00    -0.318 OA
BRANCH  67  74
ATOM     74  O2  IDS d 506     -11.400  46.510 172.719  0.00  0.00    -0.233 OA
BRANCH  74  75
ATOM     75  S   IDS d 506     -10.391  47.074 171.629  0.00  0.00     0.252 S 
ATOM     76  O1S IDS d 506     -10.740  46.400 170.417  0.00  0.00    -0.572 OA
ATOM     77  O2S IDS d 506     -10.605  48.489 171.512  0.00  0.00    -0.572 OA
ATOM     78  O3S IDS d 506      -9.070  46.734 172.111  0.00  0.00    -0.572 OA
ENDBRANCH  74  75
ENDBRANCH  67  74
BRANCH  72  79
ATOM     79  C6  IDS d 506     -11.861  44.022 176.875  0.00  0.00     0.217 C 
ATOM     80  O61 IDS d 506     -11.748  44.037 178.093  0.00  0.00    -0.646 OA
ATOM     81  O62 IDS d 506     -11.943  42.939 176.322  0.00  0.00    -0.646 OA
ENDBRANCH  72  79
ENDBRANCH  65  66
ENDBRANCH  56  65
BRANCH  58  82
ATOM     82  C6  SGN d 505     -15.270  45.483 171.048  0.00  0.00     0.198 C 
BRANCH  82  83
ATOM     83  O6  SGN d 505     -15.236  46.714 170.410  0.00  0.00    -0.235 OA
BRANCH  83  84
ATOM     84  S2  SGN d 505     -14.308  47.141 169.282  0.00  0.00     0.252 S 
ATOM     85  O6S SGN d 505     -13.408  48.146 169.831  0.00  0.00    -0.572 OA
ATOM     86  O4S SGN d 505     -13.622  45.930 168.893  0.00  0.00    -0.572 OA
ATOM     87  O5S SGN d 505     -15.188  47.679 168.275  0.00  0.00    -0.572 OA
ENDBRANCH  83  84
ENDBRANCH  82  83
ENDBRANCH  58  82
ENDBRANCH  52  53
ENDBRANCH   7  52
TORSDOF 27

ENDMDL
MODEL 56
REMARK VINA RESULT:       4.9      3.555     10.443
REMARK  27 active torsions:
REMARK  status: ('A' for Active; 'I' for Inactive)
REMARK    1  A    between atoms: C2_1  and  O2_78 
REMARK    2  A    between atoms: C1_3  and  O4_50 
REMARK    3  A    between atoms: O4_5  and  C4_58 
REMARK    4  A    between atoms: O4_5  and  C1_27 
REMARK    5  A    between atoms: C2_6  and  N_39 
REMARK    6  A    between atoms: S1_9  and  N_39 
REMARK    7  A    between atoms: C6_10  and  C5_52 
REMARK    8  A    between atoms: C2_12  and  N_73 
REMARK    9  A    between atoms: C2_19  and  O2_24 
REMARK   10  A    between atoms: C2_21  and  O2_44 
REMARK   11  A    between atoms: S2_23  and  O6_65 
REMARK   12  A    between atoms: O2_24  and  S_54 
REMARK   13  A    between atoms: C1_28  and  O4_60 
REMARK   14  A    between atoms: C5_29  and  C6_38 
REMARK   15  A    between atoms: C5_30  and  C6_33 
REMARK   16  A    between atoms: S1_34  and  N_73 
REMARK   17  A    between atoms: C5_41  and  C6_46 
REMARK   18  A    between atoms: S_43  and  O2_44 
REMARK   19  A    between atoms: C6_46  and  O6_72 
REMARK   20  A    between atoms: O4_50  and  C4_71 
REMARK   21  A    between atoms: C1_56  and  O4_64 
REMARK   22  A    between atoms: O4_60  and  C4_83 
REMARK   23  A    between atoms: C4_61  and  O4_64 
REMARK   24  A    between atoms: S2_63  and  O6_72 
REMARK   25  A    between atoms: O6_65  and  C6_67 
REMARK   26  A    between atoms: C6_67  and  C5_75 
REMARK   27  A    between atoms: S_76  and  O2_78 
ROOT
ATOM      1  C2  IDS d 504     -11.955  46.438 172.870  0.00  0.00     0.226 C 
ATOM      2  O3  IDS d 504     -12.530  46.124 175.233  0.00  0.00    -0.218 OA
ATOM      3  O5  IDS d 504     -10.720  48.484 173.342  0.00  0.00    -0.318 OA
ATOM      4  C5  IDS d 504     -11.435  48.733 174.531  0.00  0.00     0.234 C 
ATOM      5  C1  IDS d 504     -10.598  47.098 173.007  0.00  0.00     0.269 C 
ATOM      6  C3  IDS d 504     -12.929  46.811 174.053  0.00  0.00     0.216 C 
ATOM      7  C4  IDS d 504     -12.890  48.299 174.367  0.00  0.00     0.189 C 
ENDROOT
BRANCH   5   8
ATOM      8  O4  SGN d 503      -9.854  46.383 173.950  0.00  0.00    -0.326 OA
BRANCH   8   9
ATOM      9  C4  SGN d 503      -8.595  45.995 173.504  0.00  0.00     0.180 C 
ATOM     10  C3  SGN d 503      -8.710  45.569 172.043  0.00  0.00     0.210 C 
ATOM     11  C2  SGN d 503      -7.310  45.359 171.495  0.00  0.00     0.207 C 
ATOM     12  O3  SGN d 503      -9.433  44.355 171.993  0.00  0.00    -0.218 OA
ATOM     13  C1  SGN d 503      -6.420  46.589 171.729  0.00  0.00     0.263 C 
ATOM     14  O5  SGN d 503      -6.384  46.889 173.102  0.00  0.00    -0.327 OA
ATOM     15  C5  SGN d 503      -7.636  47.191 173.634  0.00  0.00     0.179 C 
BRANCH  11  16
ATOM     16  N   SGN d 503      -7.339  45.013 170.085  0.00  0.00    -0.162 NA
BRANCH  16  17
ATOM     17  S1  SGN d 503      -6.325  43.846 169.575  0.00  0.00     0.227 S 
ATOM     18  O1S SGN d 503      -5.183  44.527 168.996  0.00  0.00    -0.577 OA
ATOM     19  O2S SGN d 503      -5.951  43.030 170.729  0.00  0.00    -0.577 OA
ATOM     20  O3S SGN d 503      -7.106  43.138 168.587  0.00  0.00    -0.577 OA
ENDBRANCH  16  17
ENDBRANCH  11  16
BRANCH  13  21
ATOM     21  O4  IDS d 502      -6.870  47.682 170.976  0.00  0.00    -0.326 OA
BRANCH  21  22
ATOM     22  C4  IDS d 502      -5.925  48.208 170.079  0.00  0.00     0.189 C 
ATOM     23  C3  IDS d 502      -6.596  48.470 168.717  0.00  0.00     0.216 C 
ATOM     24  O3  IDS d 502      -5.599  48.805 167.772  0.00  0.00    -0.218 OA
ATOM     25  C2  IDS d 502      -7.578  49.642 168.807  0.00  0.00     0.229 C 
ATOM     26  C1  IDS d 502      -6.960  50.851 169.501  0.00  0.00     0.301 C 
ATOM     27  O1  IDS d 502      -6.039  51.433 168.616  0.00  0.00    -0.187 OA
ATOM     28  O5  IDS d 502      -6.377  50.493 170.729  0.00  0.00    -0.316 OA
ATOM     29  C5  IDS d 502      -5.363  49.512 170.640  0.00  0.00     0.234 C 
BRANCH  25  30
ATOM     30  O2  IDS d 502      -8.671  49.211 169.574  0.00  0.00    -0.232 OA
BRANCH  30  31
ATOM     31  S   IDS d 502     -10.007  48.578 169.066  0.00  0.00     0.252 S 
ATOM     32  O3S IDS d 502      -9.849  47.163 169.283  0.00  0.00    -0.572 OA
ATOM     33  O2S IDS d 502     -10.114  48.945 167.673  0.00  0.00    -0.572 OA
ATOM     34  O1S IDS d 502     -11.070  49.130 169.859  0.00  0.00    -0.572 OA
ENDBRANCH  30  31
ENDBRANCH  25  30
BRANCH  29  35
ATOM     35  C6  IDS d 502      -4.643  49.359 171.973  0.00  0.00     0.216 C 
ATOM     36  O61 IDS d 502      -5.004  49.964 172.953  0.00  0.00    -0.646 OA
ATOM     37  O62 IDS d 502      -3.686  48.618 172.087  0.00  0.00    -0.646 OA
ENDBRANCH  29  35
ENDBRANCH  21  22
ENDBRANCH  13  21
BRANCH  15  38
ATOM     38  C6  SGN d 503      -7.354  47.611 175.052  0.00  0.00     0.198 C 
BRANCH  38  39
ATOM     39  O6  SGN d 503      -8.077  48.798 175.295  0.00  0.00    -0.235 OA
BRANCH  39  40
ATOM     40  S2  SGN d 503      -7.455  50.187 175.601  0.00  0.00     0.252 S 
ATOM     41  O4S SGN d 503      -7.611  51.009 174.450  0.00  0.00    -0.572 OA
ATOM     42  O5S SGN d 503      -8.164  50.727 176.758  0.00  0.00    -0.572 OA
ATOM     43  O6S SGN d 503      -6.090  49.904 175.814  0.00  0.00    -0.572 OA
ENDBRANCH  39  40
ENDBRANCH  38  39
ENDBRANCH  15  38
ENDBRANCH   8   9
ENDBRANCH   5   8
BRANCH   1  44
ATOM     44  O2  IDS d 504     -12.518  46.827 171.619  0.00  0.00    -0.233 OA
BRANCH  44  45
ATOM     45  S   IDS d 504     -13.103  45.894 170.543  0.00  0.00     0.252 S 
ATOM     46  O3S IDS d 504     -14.326  45.459 171.107  0.00  0.00    -0.572 OA
ATOM     47  O2S IDS d 504     -12.145  44.854 170.304  0.00  0.00    -0.572 OA
ATOM     48  O1S IDS d 504     -13.306  46.692 169.389  0.00  0.00    -0.572 OA
ENDBRANCH  44  45
ENDBRANCH   1  44
BRANCH   4  49
ATOM     49  C6  IDS d 504     -11.235  50.189 174.984  0.00  0.00     0.216 C 
ATOM     50  O62 IDS d 504     -10.853  51.055 174.194  0.00  0.00    -0.646 OA
ATOM     51  O61 IDS d 504     -11.435  50.520 176.145  0.00  0.00    -0.646 OA
ENDBRANCH   4  49
BRANCH   7  52
ATOM     52  O4  IDS d 504     -13.499  49.019 173.305  0.00  0.00    -0.326 OA
BRANCH  52  53
ATOM     53  C1  SGN d 505     -14.818  49.411 173.569  0.00  0.00     0.263 C 
ATOM     54  C2  SGN d 505     -15.517  49.897 172.314  0.00  0.00     0.207 C 
ATOM     55  C3  SGN d 505     -14.876  51.202 171.803  0.00  0.00     0.210 C 
ATOM     56  C4  SGN d 505     -14.977  52.211 172.984  0.00  0.00     0.180 C 
ATOM     57  O3  SGN d 505     -15.624  51.665 170.686  0.00  0.00    -0.218 OA
ATOM     58  C5  SGN d 505     -14.229  51.606 174.127  0.00  0.00     0.179 C 
ATOM     59  O5  SGN d 505     -14.842  50.422 174.537  0.00  0.00    -0.327 OA
BRANCH  54  60
ATOM     60  N   SGN d 505     -15.577  48.792 171.329  0.00  0.00    -0.162 NA
BRANCH  60  61
ATOM     61  S1  SGN d 505     -17.081  48.129 171.002  0.00  0.00     0.227 S 
ATOM     62  O3S SGN d 505     -17.217  46.983 171.829  0.00  0.00    -0.577 OA
ATOM     63  O1S SGN d 505     -18.076  49.144 171.276  0.00  0.00    -0.577 OA
ATOM     64  O2S SGN d 505     -17.033  47.767 169.605  0.00  0.00    -0.577 OA
ENDBRANCH  60  61
ENDBRANCH  54  60
BRANCH  56  65
ATOM     65  O4  SGN d 505     -14.383  53.472 172.760  0.00  0.00    -0.326 OA
BRANCH  65  66
ATOM     66  C1  IDS d 506     -15.109  54.633 172.538  0.00  0.00     0.269 C 
ATOM     67  C2  IDS d 506     -14.189  55.678 171.890  0.00  0.00     0.226 C 
ATOM     68  C3  IDS d 506     -14.784  57.113 171.903  0.00  0.00     0.219 C 
ATOM     69  O3  IDS d 506     -15.664  57.249 170.790  0.00  0.00    -0.218 OA
ATOM     70  C4  IDS d 506     -15.565  57.450 173.191  0.00  0.00     0.223 C 
ATOM     71  O4  IDS d 506     -14.621  57.817 174.169  0.00  0.00    -0.217 OA
ATOM     72  C5  IDS d 506     -16.365  56.235 173.674  0.00  0.00     0.237 C 
ATOM     73  O5  IDS d 506     -15.532  55.128 173.783  0.00  0.00    -0.318 OA
BRANCH  67  74
ATOM     74  O2  IDS d 506     -12.957  55.738 172.581  0.00  0.00    -0.233 OA
BRANCH  74  75
ATOM     75  S   IDS d 506     -11.560  56.285 172.058  0.00  0.00     0.252 S 
ATOM     76  O1S IDS d 506     -11.637  56.196 170.632  0.00  0.00    -0.572 OA
ATOM     77  O2S IDS d 506     -11.428  57.650 172.483  0.00  0.00    -0.572 OA
ATOM     78  O3S IDS d 506     -10.562  55.409 172.631  0.00  0.00    -0.572 OA
ENDBRANCH  74  75
ENDBRANCH  67  74
BRANCH  72  79
ATOM     79  C6  IDS d 506     -17.148  56.406 174.962  0.00  0.00     0.217 C 
ATOM     80  O61 IDS d 506     -17.296  57.520 175.445  0.00  0.00    -0.646 OA
ATOM     81  O62 IDS d 506     -17.631  55.457 175.555  0.00  0.00    -0.646 OA
ENDBRANCH  72  79
ENDBRANCH  65  66
ENDBRANCH  56  65
BRANCH  58  82
ATOM     82  C6  SGN d 505     -14.189  52.494 175.328  0.00  0.00     0.198 C 
BRANCH  82  83
ATOM     83  O6  SGN d 505     -14.825  51.777 176.331  0.00  0.00    -0.235 OA
BRANCH  83  84
ATOM     84  S2  SGN d 505     -15.317  52.306 177.670  0.00  0.00     0.252 S 
ATOM     85  O6S SGN d 505     -16.584  51.641 177.948  0.00  0.00    -0.572 OA
ATOM     86  O4S SGN d 505     -14.281  51.946 178.611  0.00  0.00    -0.572 OA
ATOM     87  O5S SGN d 505     -15.472  53.724 177.465  0.00  0.00    -0.572 OA
ENDBRANCH  83  84
ENDBRANCH  82  83
ENDBRANCH  58  82
ENDBRANCH  52  53
ENDBRANCH   7  52
TORSDOF 27

ENDMDL
MODEL 57
REMARK VINA RESULT:       5.0      2.913     10.568
REMARK  27 active torsions:
REMARK  status: ('A' for Active; 'I' for Inactive)
REMARK    1  A    between atoms: C2_1  and  O2_78 
REMARK    2  A    between atoms: C1_3  and  O4_50 
REMARK    3  A    between atoms: O4_5  and  C4_58 
REMARK    4  A    between atoms: O4_5  and  C1_27 
REMARK    5  A    between atoms: C2_6  and  N_39 
REMARK    6  A    between atoms: S1_9  and  N_39 
REMARK    7  A    between atoms: C6_10  and  C5_52 
REMARK    8  A    between atoms: C2_12  and  N_73 
REMARK    9  A    between atoms: C2_19  and  O2_24 
REMARK   10  A    between atoms: C2_21  and  O2_44 
REMARK   11  A    between atoms: S2_23  and  O6_65 
REMARK   12  A    between atoms: O2_24  and  S_54 
REMARK   13  A    between atoms: C1_28  and  O4_60 
REMARK   14  A    between atoms: C5_29  and  C6_38 
REMARK   15  A    between atoms: C5_30  and  C6_33 
REMARK   16  A    between atoms: S1_34  and  N_73 
REMARK   17  A    between atoms: C5_41  and  C6_46 
REMARK   18  A    between atoms: S_43  and  O2_44 
REMARK   19  A    between atoms: C6_46  and  O6_72 
REMARK   20  A    between atoms: O4_50  and  C4_71 
REMARK   21  A    between atoms: C1_56  and  O4_64 
REMARK   22  A    between atoms: O4_60  and  C4_83 
REMARK   23  A    between atoms: C4_61  and  O4_64 
REMARK   24  A    between atoms: S2_63  and  O6_72 
REMARK   25  A    between atoms: O6_65  and  C6_67 
REMARK   26  A    between atoms: C6_67  and  C5_75 
REMARK   27  A    between atoms: S_76  and  O2_78 
ROOT
ATOM      1  C2  IDS d 504     -13.778  50.141 174.989  0.00  0.00     0.226 C 
ATOM      2  O3  IDS d 504     -14.254  51.498 173.003  0.00  0.00    -0.218 OA
ATOM      3  O5  IDS d 504     -14.073  48.060 173.757  0.00  0.00    -0.318 OA
ATOM      4  C5  IDS d 504     -14.895  48.662 172.784  0.00  0.00     0.234 C 
ATOM      5  C1  IDS d 504     -13.111  48.942 174.345  0.00  0.00     0.269 C 
ATOM      6  C3  IDS d 504     -14.880  50.787 174.064  0.00  0.00     0.216 C 
ATOM      7  C4  IDS d 504     -15.773  49.732 173.430  0.00  0.00     0.189 C 
ENDROOT
BRANCH   5   8
ATOM      8  O4  SGN d 503     -12.174  49.407 173.417  0.00  0.00    -0.326 OA
BRANCH   8   9
ATOM      9  C4  SGN d 503     -11.183  48.483 173.102  0.00  0.00     0.180 C 
ATOM     10  C3  SGN d 503     -10.824  47.708 174.367  0.00  0.00     0.210 C 
ATOM     11  C2  SGN d 503      -9.909  46.560 173.980  0.00  0.00     0.207 C 
ATOM     12  O3  SGN d 503     -10.148  48.587 175.246  0.00  0.00    -0.218 OA
ATOM     13  C1  SGN d 503     -10.520  45.701 172.863  0.00  0.00     0.263 C 
ATOM     14  O5  SGN d 503     -10.808  46.512 171.751  0.00  0.00    -0.327 OA
ATOM     15  C5  SGN d 503     -11.725  47.524 172.028  0.00  0.00     0.179 C 
BRANCH  11  16
ATOM     16  N   SGN d 503      -9.577  45.737 175.130  0.00  0.00    -0.162 NA
BRANCH  16  17
ATOM     17  S1  SGN d 503      -8.162  44.935 175.099  0.00  0.00     0.227 S 
ATOM     18  O1S SGN d 503      -8.007  44.336 176.411  0.00  0.00    -0.577 OA
ATOM     19  O2S SGN d 503      -8.230  43.929 174.040  0.00  0.00    -0.577 OA
ATOM     20  O3S SGN d 503      -7.194  45.980 174.851  0.00  0.00    -0.577 OA
ENDBRANCH  16  17
ENDBRANCH  11  16
BRANCH  13  21
ATOM     21  O4  IDS d 502     -11.663  45.028 173.316  0.00  0.00    -0.326 OA
BRANCH  21  22
ATOM     22  C4  IDS d 502     -11.654  43.641 173.097  0.00  0.00     0.189 C 
ATOM     23  C3  IDS d 502     -11.828  42.904 174.438  0.00  0.00     0.216 C 
ATOM     24  O3  IDS d 502     -11.617  41.521 174.233  0.00  0.00    -0.218 OA
ATOM     25  C2  IDS d 502     -13.245  43.092 174.988  0.00  0.00     0.229 C 
ATOM     26  C1  IDS d 502     -14.307  42.823 173.926  0.00  0.00     0.301 C 
ATOM     27  O1  IDS d 502     -14.360  41.438 173.710  0.00  0.00    -0.187 OA
ATOM     28  O5  IDS d 502     -14.046  43.544 172.748  0.00  0.00    -0.316 OA
ATOM     29  C5  IDS d 502     -12.794  43.270 172.150  0.00  0.00     0.234 C 
BRANCH  25  30
ATOM     30  O2  IDS d 502     -13.361  44.430 175.391  0.00  0.00    -0.232 OA
BRANCH  30  31
ATOM     31  S   IDS d 502     -13.678  44.975 176.823  0.00  0.00     0.252 S 
ATOM     32  O3S IDS d 502     -14.387  46.208 176.598  0.00  0.00    -0.572 OA
ATOM     33  O2S IDS d 502     -12.398  45.149 177.470  0.00  0.00    -0.572 OA
ATOM     34  O1S IDS d 502     -14.494  43.994 177.481  0.00  0.00    -0.572 OA
ENDBRANCH  30  31
ENDBRANCH  25  30
BRANCH  29  35
ATOM     35  C6  IDS d 502     -12.700  43.918 170.776  0.00  0.00     0.216 C 
ATOM     36  O61 IDS d 502     -13.562  44.660 170.373  0.00  0.00    -0.646 OA
ATOM     37  O62 IDS d 502     -11.749  43.707 170.048  0.00  0.00    -0.646 OA
ENDBRANCH  29  35
ENDBRANCH  21  22
ENDBRANCH  13  21
BRANCH  15  38
ATOM     38  C6  SGN d 503     -11.991  48.169 170.695  0.00  0.00     0.198 C 
BRANCH  38  39
ATOM     39  O6  SGN d 503     -10.752  48.609 170.181  0.00  0.00    -0.235 OA
BRANCH  39  40
ATOM     40  S2  SGN d 503     -10.188  48.275 168.775  0.00  0.00     0.252 S 
ATOM     41  O4S SGN d 503     -11.265  48.294 167.844  0.00  0.00    -0.572 OA
ATOM     42  O5S SGN d 503      -9.182  49.286 168.466  0.00  0.00    -0.572 OA
ATOM     43  O6S SGN d 503      -9.693  46.961 168.916  0.00  0.00    -0.572 OA
ENDBRANCH  39  40
ENDBRANCH  38  39
ENDBRANCH  15  38
ENDBRANCH   8   9
ENDBRANCH   5   8
BRANCH   1  44
ATOM     44  O2  IDS d 504     -14.348  49.724 176.228  0.00  0.00    -0.233 OA
BRANCH  44  45
ATOM     45  S   IDS d 504     -13.813  50.032 177.638  0.00  0.00     0.252 S 
ATOM     46  O3S IDS d 504     -12.832  49.034 177.848  0.00  0.00    -0.572 OA
ATOM     47  O2S IDS d 504     -14.923  49.987 178.543  0.00  0.00    -0.572 OA
ATOM     48  O1S IDS d 504     -13.244  51.329 177.574  0.00  0.00    -0.572 OA
ENDBRANCH  44  45
ENDBRANCH   1  44
BRANCH   4  49
ATOM     49  C6  IDS d 504     -15.654  47.591 171.983  0.00  0.00     0.216 C 
ATOM     50  O62 IDS d 504     -16.341  47.894 171.006  0.00  0.00    -0.646 OA
ATOM     51  O61 IDS d 504     -15.608  46.412 172.309  0.00  0.00    -0.646 OA
ENDBRANCH   4  49
BRANCH   7  52
ATOM     52  O4  IDS d 504     -16.595  49.150 174.431  0.00  0.00    -0.326 OA
BRANCH  52  53
ATOM     53  C1  SGN d 505     -17.908  49.642 174.443  0.00  0.00     0.263 C 
ATOM     54  C2  SGN d 505     -18.545  49.497 175.812  0.00  0.00     0.207 C 
ATOM     55  C3  SGN d 505     -18.742  48.011 176.168  0.00  0.00     0.210 C 
ATOM     56  C4  SGN d 505     -19.616  47.417 175.025  0.00  0.00     0.180 C 
ATOM     57  O3  SGN d 505     -19.426  47.932 177.412  0.00  0.00    -0.218 OA
ATOM     58  C5  SGN d 505     -18.851  47.613 173.756  0.00  0.00     0.179 C 
ATOM     59  O5  SGN d 505     -18.688  48.973 173.493  0.00  0.00    -0.327 OA
BRANCH  54  60
ATOM     60  N   SGN d 505     -17.772  50.288 176.797  0.00  0.00    -0.162 NA
BRANCH  60  61
ATOM     61  S1  SGN d 505     -18.149  51.914 176.951  0.00  0.00     0.227 S 
ATOM     62  O3S SGN d 505     -19.559  52.001 177.088  0.00  0.00    -0.577 OA
ATOM     63  O1S SGN d 505     -17.436  52.422 178.104  0.00  0.00    -0.577 OA
ATOM     64  O2S SGN d 505     -17.702  52.518 175.717  0.00  0.00    -0.577 OA
ENDBRANCH  60  61
ENDBRANCH  54  60
BRANCH  56  65
ATOM     65  O4  SGN d 505     -19.870  46.030 175.110  0.00  0.00    -0.326 OA
BRANCH  65  66
ATOM     66  C1  IDS d 506     -20.887  45.483 175.877  0.00  0.00     0.269 C 
ATOM     67  C2  IDS d 506     -21.099  44.023 175.453  0.00  0.00     0.226 C 
ATOM     68  C3  IDS d 506     -22.420  43.410 175.994  0.00  0.00     0.219 C 
ATOM     69  O3  IDS d 506     -22.195  42.953 177.325  0.00  0.00    -0.218 OA
ATOM     70  C4  IDS d 506     -23.604  44.401 176.008  0.00  0.00     0.223 C 
ATOM     71  O4  IDS d 506     -24.136  44.434 174.705  0.00  0.00    -0.217 OA
ATOM     72  C5  IDS d 506     -23.133  45.802 176.411  0.00  0.00     0.237 C 
ATOM     73  O5  IDS d 506     -22.068  46.197 175.611  0.00  0.00    -0.318 OA
BRANCH  67  74
ATOM     74  O2  IDS d 506     -21.151  43.928 174.043  0.00  0.00    -0.233 OA
BRANCH  74  75
ATOM     75  S   IDS d 506     -20.517  42.812 173.107  0.00  0.00     0.252 S 
ATOM     76  O1S IDS d 506     -21.635  42.123 172.541  0.00  0.00    -0.572 OA
ATOM     77  O2S IDS d 506     -19.746  43.468 172.089  0.00  0.00    -0.572 OA
ATOM     78  O3S IDS d 506     -19.718  41.981 173.982  0.00  0.00    -0.572 OA
ENDBRANCH  74  75
ENDBRANCH  67  74
BRANCH  72  79
ATOM     79  C6  IDS d 506     -24.186  46.895 176.422  0.00  0.00     0.217 C 
ATOM     80  O61 IDS d 506     -24.982  46.968 177.348  0.00  0.00    -0.646 OA
ATOM     81  O62 IDS d 506     -24.283  47.708 175.519  0.00  0.00    -0.646 OA
ENDBRANCH  72  79
ENDBRANCH  65  66
ENDBRANCH  56  65
BRANCH  58  82
ATOM     82  C6  SGN d 505     -19.545  47.036 172.566  0.00  0.00     0.198 C 
BRANCH  82  83
ATOM     83  O6  SGN d 505     -19.960  48.130 171.822  0.00  0.00    -0.235 OA
BRANCH  83  84
ATOM     84  S2  SGN d 505     -21.221  48.246 170.978  0.00  0.00     0.252 S 
ATOM     85  O6S SGN d 505     -20.933  49.197 169.913  0.00  0.00    -0.572 OA
ATOM     86  O4S SGN d 505     -21.455  46.908 170.482  0.00  0.00    -0.572 OA
ATOM     87  O5S SGN d 505     -22.226  48.728 171.892  0.00  0.00    -0.572 OA
ENDBRANCH  83  84
ENDBRANCH  82  83
ENDBRANCH  58  82
ENDBRANCH  52  53
ENDBRANCH   7  52
TORSDOF 27

ENDMDL
MODEL 58
REMARK VINA RESULT:       5.0      4.439     10.258
REMARK  27 active torsions:
REMARK  status: ('A' for Active; 'I' for Inactive)
REMARK    1  A    between atoms: C2_1  and  O2_78 
REMARK    2  A    between atoms: C1_3  and  O4_50 
REMARK    3  A    between atoms: O4_5  and  C4_58 
REMARK    4  A    between atoms: O4_5  and  C1_27 
REMARK    5  A    between atoms: C2_6  and  N_39 
REMARK    6  A    between atoms: S1_9  and  N_39 
REMARK    7  A    between atoms: C6_10  and  C5_52 
REMARK    8  A    between atoms: C2_12  and  N_73 
REMARK    9  A    between atoms: C2_19  and  O2_24 
REMARK   10  A    between atoms: C2_21  and  O2_44 
REMARK   11  A    between atoms: S2_23  and  O6_65 
REMARK   12  A    between atoms: O2_24  and  S_54 
REMARK   13  A    between atoms: C1_28  and  O4_60 
REMARK   14  A    between atoms: C5_29  and  C6_38 
REMARK   15  A    between atoms: C5_30  and  C6_33 
REMARK   16  A    between atoms: S1_34  and  N_73 
REMARK   17  A    between atoms: C5_41  and  C6_46 
REMARK   18  A    between atoms: S_43  and  O2_44 
REMARK   19  A    between atoms: C6_46  and  O6_72 
REMARK   20  A    between atoms: O4_50  and  C4_71 
REMARK   21  A    between atoms: C1_56  and  O4_64 
REMARK   22  A    between atoms: O4_60  and  C4_83 
REMARK   23  A    between atoms: C4_61  and  O4_64 
REMARK   24  A    between atoms: S2_63  and  O6_72 
REMARK   25  A    between atoms: O6_65  and  C6_67 
REMARK   26  A    between atoms: C6_67  and  C5_75 
REMARK   27  A    between atoms: S_76  and  O2_78 
ROOT
ATOM      1  C2  IDS d 504     -16.332  49.392 176.362  0.00  0.00     0.226 C 
ATOM      2  O3  IDS d 504     -15.415  51.244 177.682  0.00  0.00    -0.218 OA
ATOM      3  O5  IDS d 504     -15.084  50.060 174.379  0.00  0.00    -0.318 OA
ATOM      4  C5  IDS d 504     -14.974  51.399 174.805  0.00  0.00     0.234 C 
ATOM      5  C1  IDS d 504     -15.160  49.107 175.445  0.00  0.00     0.269 C 
ATOM      6  C3  IDS d 504     -16.437  50.917 176.749  0.00  0.00     0.216 C 
ATOM      7  C4  IDS d 504     -16.245  51.820 175.540  0.00  0.00     0.189 C 
ENDROOT
BRANCH   5   8
ATOM      8  O4  SGN d 503     -13.995  49.074 176.217  0.00  0.00    -0.326 OA
BRANCH   8   9
ATOM      9  C4  SGN d 503     -13.051  48.151 175.780  0.00  0.00     0.180 C 
ATOM     10  C3  SGN d 503     -13.786  46.943 175.203  0.00  0.00     0.210 C 
ATOM     11  C2  SGN d 503     -12.768  46.041 174.531  0.00  0.00     0.207 C 
ATOM     12  O3  SGN d 503     -14.409  46.255 176.271  0.00  0.00    -0.218 OA
ATOM     13  C1  SGN d 503     -11.916  46.810 173.511  0.00  0.00     0.263 C 
ATOM     14  O5  SGN d 503     -11.286  47.893 174.147  0.00  0.00    -0.327 OA
ATOM     15  C5  SGN d 503     -12.181  48.809 174.696  0.00  0.00     0.179 C 
BRANCH  11  16
ATOM     16  N   SGN d 503     -13.408  44.899 173.901  0.00  0.00    -0.162 NA
BRANCH  16  17
ATOM     17  S1  SGN d 503     -12.787  43.425 174.205  0.00  0.00     0.227 S 
ATOM     18  O1S SGN d 503     -13.830  42.471 173.880  0.00  0.00    -0.577 OA
ATOM     19  O2S SGN d 503     -11.601  43.248 173.369  0.00  0.00    -0.577 OA
ATOM     20  O3S SGN d 503     -12.501  43.472 175.622  0.00  0.00    -0.577 OA
ENDBRANCH  16  17
ENDBRANCH  11  16
BRANCH  13  21
ATOM     21  O4  IDS d 502     -12.695  47.235 172.426  0.00  0.00    -0.326 OA
BRANCH  21  22
ATOM     22  C4  IDS d 502     -12.365  46.643 171.196  0.00  0.00     0.189 C 
ATOM     23  C3  IDS d 502     -13.651  46.198 170.474  0.00  0.00     0.216 C 
ATOM     24  O3  IDS d 502     -13.298  45.428 169.341  0.00  0.00    -0.218 OA
ATOM     25  C2  IDS d 502     -14.457  47.408 169.994  0.00  0.00     0.229 C 
ATOM     26  C1  IDS d 502     -13.582  48.418 169.258  0.00  0.00     0.301 C 
ATOM     27  O1  IDS d 502     -13.266  47.880 168.002  0.00  0.00    -0.187 OA
ATOM     28  O5  IDS d 502     -12.439  48.748 170.008  0.00  0.00    -0.316 OA
ATOM     29  C5  IDS d 502     -11.608  47.651 170.334  0.00  0.00     0.234 C 
BRANCH  25  30
ATOM     30  O2  IDS d 502     -14.982  48.037 171.133  0.00  0.00    -0.232 OA
BRANCH  30  31
ATOM     31  S   IDS d 502     -16.453  47.984 171.663  0.00  0.00     0.252 S 
ATOM     32  O3S IDS d 502     -16.384  47.189 172.861  0.00  0.00    -0.572 OA
ATOM     33  O2S IDS d 502     -17.231  47.378 170.607  0.00  0.00    -0.572 OA
ATOM     34  O1S IDS d 502     -16.858  49.335 171.933  0.00  0.00    -0.572 OA
ENDBRANCH  30  31
ENDBRANCH  25  30
BRANCH  29  35
ATOM     35  C6  IDS d 502     -10.297  48.132 170.940  0.00  0.00     0.216 C 
ATOM     36  O61 IDS d 502     -10.110  49.299 171.183  0.00  0.00    -0.646 OA
ATOM     37  O62 IDS d 502      -9.404  47.349 171.200  0.00  0.00    -0.646 OA
ENDBRANCH  29  35
ENDBRANCH  21  22
ENDBRANCH  13  21
BRANCH  15  38
ATOM     38  C6  SGN d 503     -11.315  49.935 175.192  0.00  0.00     0.198 C 
BRANCH  38  39
ATOM     39  O6  SGN d 503     -11.128  50.833 174.119  0.00  0.00    -0.235 OA
BRANCH  39  40
ATOM     40  S2  SGN d 503     -10.152  52.039 174.110  0.00  0.00     0.252 S 
ATOM     41  O4S SGN d 503     -10.900  53.217 173.832  0.00  0.00    -0.572 OA
ATOM     42  O5S SGN d 503      -9.522  52.089 175.427  0.00  0.00    -0.572 OA
ATOM     43  O6S SGN d 503      -9.278  51.755 173.040  0.00  0.00    -0.572 OA
ENDBRANCH  39  40
ENDBRANCH  38  39
ENDBRANCH  15  38
ENDBRANCH   8   9
ENDBRANCH   5   8
BRANCH   1  44
ATOM     44  O2  IDS d 504     -17.525  48.959 175.712  0.00  0.00    -0.233 OA
BRANCH  44  45
ATOM     45  S   IDS d 504     -18.517  47.898 176.222  0.00  0.00     0.252 S 
ATOM     46  O3S IDS d 504     -17.737  47.105 177.097  0.00  0.00    -0.572 OA
ATOM     47  O2S IDS d 504     -19.035  47.204 175.080  0.00  0.00    -0.572 OA
ATOM     48  O1S IDS d 504     -19.536  48.602 176.911  0.00  0.00    -0.572 OA
ENDBRANCH  44  45
ENDBRANCH   1  44
BRANCH   4  49
ATOM     49  C6  IDS d 504     -14.569  52.305 173.630  0.00  0.00     0.216 C 
ATOM     50  O62 IDS d 504     -13.965  53.363 173.820  0.00  0.00    -0.646 OA
ATOM     51  O61 IDS d 504     -14.854  52.006 172.477  0.00  0.00    -0.646 OA
ENDBRANCH   4  49
BRANCH   7  52
ATOM     52  O4  IDS d 504     -17.369  51.701 174.681  0.00  0.00    -0.326 OA
BRANCH  52  53
ATOM     53  C1  SGN d 505     -18.481  52.446 175.097  0.00  0.00     0.263 C 
ATOM     54  C2  SGN d 505     -19.626  52.336 174.109  0.00  0.00     0.207 C 
ATOM     55  C3  SGN d 505     -19.258  53.004 172.769  0.00  0.00     0.210 C 
ATOM     56  C4  SGN d 505     -18.897  54.476 173.119  0.00  0.00     0.180 C 
ATOM     57  O3  SGN d 505     -20.394  52.958 171.915  0.00  0.00    -0.218 OA
ATOM     58  C5  SGN d 505     -17.749  54.420 174.074  0.00  0.00     0.179 C 
ATOM     59  O5  SGN d 505     -18.134  53.792 175.259  0.00  0.00    -0.327 OA
BRANCH  54  60
ATOM     60  N   SGN d 505     -20.057  50.922 174.015  0.00  0.00    -0.162 NA
BRANCH  60  61
ATOM     61  S1  SGN d 505     -21.608  50.550 174.529  0.00  0.00     0.227 S 
ATOM     62  O3S SGN d 505     -21.696  50.937 175.892  0.00  0.00    -0.577 OA
ATOM     63  O1S SGN d 505     -22.535  51.265 173.677  0.00  0.00    -0.577 OA
ATOM     64  O2S SGN d 505     -21.716  49.117 174.381  0.00  0.00    -0.577 OA
ENDBRANCH  60  61
ENDBRANCH  54  60
BRANCH  56  65
ATOM     65  O4  SGN d 505     -18.457  55.270 172.036  0.00  0.00    -0.326 OA
BRANCH  65  66
ATOM     66  C1  IDS d 506     -19.292  56.103 171.307  0.00  0.00     0.269 C 
ATOM     67  C2  IDS d 506     -18.461  56.829 170.240  0.00  0.00     0.226 C 
ATOM     68  C3  IDS d 506     -19.207  58.028 169.590  0.00  0.00     0.219 C 
ATOM     69  O3  IDS d 506     -20.043  57.530 168.549  0.00  0.00    -0.218 OA
ATOM     70  C4  IDS d 506     -20.080  58.827 170.581  0.00  0.00     0.223 C 
ATOM     71  O4  IDS d 506     -19.227  59.712 171.269  0.00  0.00    -0.217 OA
ATOM     72  C5  IDS d 506     -20.766  57.888 171.579  0.00  0.00     0.237 C 
ATOM     73  O5  IDS d 506     -19.825  57.064 172.183  0.00  0.00    -0.318 OA
BRANCH  67  74
ATOM     74  O2  IDS d 506     -17.277  57.346 170.814  0.00  0.00    -0.233 OA
BRANCH  74  75
ATOM     75  S   IDS d 506     -15.774  57.096 170.363  0.00  0.00     0.252 S 
ATOM     76  O1S IDS d 506     -15.350  55.947 171.103  0.00  0.00    -0.572 OA
ATOM     77  O2S IDS d 506     -15.769  56.832 168.952  0.00  0.00    -0.572 OA
ATOM     78  O3S IDS d 506     -15.057  58.301 170.721  0.00  0.00    -0.572 OA
ENDBRANCH  74  75
ENDBRANCH  67  74
BRANCH  72  79
ATOM     79  C6  IDS d 506     -21.622  58.542 172.647  0.00  0.00     0.217 C 
ATOM     80  O61 IDS d 506     -22.428  59.409 172.339  0.00  0.00    -0.646 OA
ATOM     81  O62 IDS d 506     -21.527  58.243 173.825  0.00  0.00    -0.646 OA
ENDBRANCH  72  79
ENDBRANCH  65  66
ENDBRANCH  56  65
BRANCH  58  82
ATOM     82  C6  SGN d 505     -17.249  55.774 174.461  0.00  0.00     0.198 C 
BRANCH  82  83
ATOM     83  O6  SGN d 505     -15.951  55.568 174.905  0.00  0.00    -0.235 OA
BRANCH  83  84
ATOM     84  S2  SGN d 505     -15.398  55.850 176.294  0.00  0.00     0.252 S 
ATOM     85  O6S SGN d 505     -15.020  54.565 176.868  0.00  0.00    -0.572 OA
ATOM     86  O4S SGN d 505     -14.262  56.716 176.068  0.00  0.00    -0.572 OA
ATOM     87  O5S SGN d 505     -16.491  56.470 177.000  0.00  0.00    -0.572 OA
ENDBRANCH  83  84
ENDBRANCH  82  83
ENDBRANCH  58  82
ENDBRANCH  52  53
ENDBRANCH   7  52
TORSDOF 27

ENDMDL
MODEL 59
REMARK VINA RESULT:       5.0      4.233      8.919
REMARK  27 active torsions:
REMARK  status: ('A' for Active; 'I' for Inactive)
REMARK    1  A    between atoms: C2_1  and  O2_78 
REMARK    2  A    between atoms: C1_3  and  O4_50 
REMARK    3  A    between atoms: O4_5  and  C4_58 
REMARK    4  A    between atoms: O4_5  and  C1_27 
REMARK    5  A    between atoms: C2_6  and  N_39 
REMARK    6  A    between atoms: S1_9  and  N_39 
REMARK    7  A    between atoms: C6_10  and  C5_52 
REMARK    8  A    between atoms: C2_12  and  N_73 
REMARK    9  A    between atoms: C2_19  and  O2_24 
REMARK   10  A    between atoms: C2_21  and  O2_44 
REMARK   11  A    between atoms: S2_23  and  O6_65 
REMARK   12  A    between atoms: O2_24  and  S_54 
REMARK   13  A    between atoms: C1_28  and  O4_60 
REMARK   14  A    between atoms: C5_29  and  C6_38 
REMARK   15  A    between atoms: C5_30  and  C6_33 
REMARK   16  A    between atoms: S1_34  and  N_73 
REMARK   17  A    between atoms: C5_41  and  C6_46 
REMARK   18  A    between atoms: S_43  and  O2_44 
REMARK   19  A    between atoms: C6_46  and  O6_72 
REMARK   20  A    between atoms: O4_50  and  C4_71 
REMARK   21  A    between atoms: C1_56  and  O4_64 
REMARK   22  A    between atoms: O4_60  and  C4_83 
REMARK   23  A    between atoms: C4_61  and  O4_64 
REMARK   24  A    between atoms: S2_63  and  O6_72 
REMARK   25  A    between atoms: O6_65  and  C6_67 
REMARK   26  A    between atoms: C6_67  and  C5_75 
REMARK   27  A    between atoms: S_76  and  O2_78 
ROOT
ATOM      1  C2  IDS d 504     -15.283  46.425 175.428  0.00  0.00     0.226 C 
ATOM      2  O3  IDS d 504     -14.492  45.727 173.214  0.00  0.00    -0.218 OA
ATOM      3  O5  IDS d 504     -17.488  46.999 174.566  0.00  0.00    -0.318 OA
ATOM      4  C5  IDS d 504     -17.010  47.196 173.255  0.00  0.00     0.234 C 
ATOM      5  C1  IDS d 504     -16.745  46.040 175.326  0.00  0.00     0.269 C 
ATOM      6  C3  IDS d 504     -14.679  46.870 174.040  0.00  0.00     0.216 C 
ATOM      7  C4  IDS d 504     -15.613  47.812 173.295  0.00  0.00     0.189 C 
ENDROOT
BRANCH   5   8
ATOM      8  O4  SGN d 503     -16.825  44.752 174.789  0.00  0.00    -0.326 OA
BRANCH   8   9
ATOM      9  C4  SGN d 503     -17.975  44.058 175.148  0.00  0.00     0.180 C 
ATOM     10  C3  SGN d 503     -18.561  44.707 176.400  0.00  0.00     0.210 C 
ATOM     11  C2  SGN d 503     -19.924  44.094 176.662  0.00  0.00     0.207 C 
ATOM     12  O3  SGN d 503     -17.694  44.435 177.484  0.00  0.00    -0.218 OA
ATOM     13  C1  SGN d 503     -20.829  44.176 175.424  0.00  0.00     0.263 C 
ATOM     14  O5  SGN d 503     -20.196  43.548 174.337  0.00  0.00    -0.327 OA
ATOM     15  C5  SGN d 503     -18.982  44.139 173.988  0.00  0.00     0.179 C 
BRANCH  11  16
ATOM     16  N   SGN d 503     -20.572  44.712 177.806  0.00  0.00    -0.162 NA
BRANCH  16  17
ATOM     17  S1  SGN d 503     -21.561  43.783 178.704  0.00  0.00     0.227 S 
ATOM     18  O1S SGN d 503     -22.878  43.899 178.106  0.00  0.00    -0.577 OA
ATOM     19  O2S SGN d 503     -21.059  42.411 178.665  0.00  0.00    -0.577 OA
ATOM     20  O3S SGN d 503     -21.492  44.394 180.012  0.00  0.00    -0.577 OA
ENDBRANCH  16  17
ENDBRANCH  11  16
BRANCH  13  21
ATOM     21  O4  IDS d 502     -21.156  45.506 175.128  0.00  0.00    -0.326 OA
BRANCH  21  22
ATOM     22  C4  IDS d 502     -22.531  45.790 175.135  0.00  0.00     0.189 C 
ATOM     23  C3  IDS d 502     -22.813  46.961 176.096  0.00  0.00     0.216 C 
ATOM     24  O3  IDS d 502     -24.211  47.104 176.248  0.00  0.00    -0.218 OA
ATOM     25  C2  IDS d 502     -22.259  48.275 175.536  0.00  0.00     0.229 C 
ATOM     26  C1  IDS d 502     -22.657  48.484 174.078  0.00  0.00     0.301 C 
ATOM     27  O1  IDS d 502     -24.020  48.815 174.047  0.00  0.00    -0.187 OA
ATOM     28  O5  IDS d 502     -22.357  47.354 173.299  0.00  0.00    -0.316 OA
ATOM     29  C5  IDS d 502     -22.981  46.158 173.723  0.00  0.00     0.234 C 
BRANCH  25  30
ATOM     30  O2  IDS d 502     -20.860  48.197 175.598  0.00  0.00    -0.232 OA
BRANCH  30  31
ATOM     31  S   IDS d 502     -19.902  48.941 176.586  0.00  0.00     0.252 S 
ATOM     32  O3S IDS d 502     -19.327  47.897 177.395  0.00  0.00    -0.572 OA
ATOM     33  O2S IDS d 502     -20.736  49.859 177.327  0.00  0.00    -0.572 OA
ATOM     34  O1S IDS d 502     -18.914  49.617 175.794  0.00  0.00    -0.572 OA
ENDBRANCH  30  31
ENDBRANCH  25  30
BRANCH  29  35
ATOM     35  C6  IDS d 502     -22.781  45.053 172.696  0.00  0.00     0.216 C 
ATOM     36  O61 IDS d 502     -23.328  43.983 172.812  0.00  0.00    -0.646 OA
ATOM     37  O62 IDS d 502     -22.067  45.221 171.726  0.00  0.00    -0.646 OA
ENDBRANCH  29  35
ENDBRANCH  21  22
ENDBRANCH  13  21
BRANCH  15  38
ATOM     38  C6  SGN d 503     -18.554  43.415 172.740  0.00  0.00     0.198 C 
BRANCH  38  39
ATOM     39  O6  SGN d 503     -18.251  44.390 171.766  0.00  0.00    -0.235 OA
BRANCH  39  40
ATOM     40  S2  SGN d 503     -17.452  44.143 170.459  0.00  0.00     0.252 S 
ATOM     41  O4S SGN d 503     -16.231  43.494 170.798  0.00  0.00    -0.572 OA
ATOM     42  O5S SGN d 503     -18.289  43.315 169.596  0.00  0.00    -0.572 OA
ATOM     43  O6S SGN d 503     -17.192  45.442 169.974  0.00  0.00    -0.572 OA
ENDBRANCH  39  40
ENDBRANCH  38  39
ENDBRANCH  15  38
ENDBRANCH   8   9
ENDBRANCH   5   8
BRANCH   1  44
ATOM     44  O2  IDS d 504     -15.162  47.477 176.384  0.00  0.00    -0.233 OA
BRANCH  44  45
ATOM     45  S   IDS d 504     -14.370  47.433 177.703  0.00  0.00     0.252 S 
ATOM     46  O3S IDS d 504     -15.321  47.822 178.676  0.00  0.00    -0.572 OA
ATOM     47  O2S IDS d 504     -13.251  48.318 177.567  0.00  0.00    -0.572 OA
ATOM     48  O1S IDS d 504     -13.955  46.089 177.876  0.00  0.00    -0.572 OA
ENDBRANCH  44  45
ENDBRANCH   1  44
BRANCH   4  49
ATOM     49  C6  IDS d 504     -18.040  47.970 172.417  0.00  0.00     0.216 C 
ATOM     50  O62 IDS d 504     -19.207  48.092 172.796  0.00  0.00    -0.646 OA
ATOM     51  O61 IDS d 504     -17.731  48.470 171.343  0.00  0.00    -0.646 OA
ENDBRANCH   4  49
BRANCH   7  52
ATOM     52  O4  IDS d 504     -15.649  49.063 173.965  0.00  0.00    -0.326 OA
BRANCH  52  53
ATOM     53  C1  SGN d 505     -15.006  50.097 173.270  0.00  0.00     0.263 C 
ATOM     54  C2  SGN d 505     -14.250  51.015 174.211  0.00  0.00     0.207 C 
ATOM     55  C3  SGN d 505     -15.224  51.782 175.126  0.00  0.00     0.210 C 
ATOM     56  C4  SGN d 505     -16.183  52.549 174.169  0.00  0.00     0.180 C 
ATOM     57  O3  SGN d 505     -14.475  52.694 175.918  0.00  0.00    -0.218 OA
ATOM     58  C5  SGN d 505     -16.865  51.517 173.330  0.00  0.00     0.179 C 
ATOM     59  O5  SGN d 505     -15.936  50.844 172.538  0.00  0.00    -0.327 OA
BRANCH  54  60
ATOM     60  N   SGN d 505     -13.200  50.240 174.912  0.00  0.00    -0.162 NA
BRANCH  60  61
ATOM     61  S1  SGN d 505     -11.654  50.886 174.947  0.00  0.00     0.227 S 
ATOM     62  O3S SGN d 505     -10.777  49.890 174.444  0.00  0.00    -0.577 OA
ATOM     63  O1S SGN d 505     -11.665  52.089 174.141  0.00  0.00    -0.577 OA
ATOM     64  O2S SGN d 505     -11.397  51.159 176.341  0.00  0.00    -0.577 OA
ENDBRANCH  60  61
ENDBRANCH  54  60
BRANCH  56  65
ATOM     65  O4  SGN d 505     -17.217  53.278 174.798  0.00  0.00    -0.326 OA
BRANCH  65  66
ATOM     66  C1  IDS d 506     -17.175  54.649 174.999  0.00  0.00     0.269 C 
ATOM     67  C2  IDS d 506     -18.544  55.118 175.512  0.00  0.00     0.226 C 
ATOM     68  C3  IDS d 506     -18.729  56.660 175.452  0.00  0.00     0.219 C 
ATOM     69  O3  IDS d 506     -18.137  57.232 176.615  0.00  0.00    -0.218 OA
ATOM     70  C4  IDS d 506     -18.094  57.313 174.206  0.00  0.00     0.223 C 
ATOM     71  O4  IDS d 506     -19.000  57.149 173.140  0.00  0.00    -0.217 OA
ATOM     72  C5  IDS d 506     -16.761  56.641 173.860  0.00  0.00     0.237 C 
ATOM     73  O5  IDS d 506     -16.932  55.265 173.759  0.00  0.00    -0.318 OA
BRANCH  67  74
ATOM     74  O2  IDS d 506     -19.577  54.551 174.729  0.00  0.00    -0.233 OA
BRANCH  74  75
ATOM     75  S   IDS d 506     -21.139  54.538 175.021  0.00  0.00     0.252 S 
ATOM     76  O1S IDS d 506     -21.757  54.748 173.748  0.00  0.00    -0.572 OA
ATOM     77  O2S IDS d 506     -21.483  53.251 175.555  0.00  0.00    -0.572 OA
ATOM     78  O3S IDS d 506     -21.368  55.623 175.951  0.00  0.00    -0.572 OA
ENDBRANCH  74  75
ENDBRANCH  67  74
BRANCH  72  79
ATOM     79  C6  IDS d 506     -16.044  57.151 172.624  0.00  0.00     0.217 C 
ATOM     80  O61 IDS d 506     -15.414  58.198 172.671  0.00  0.00    -0.646 OA
ATOM     81  O62 IDS d 506     -16.083  56.554 171.562  0.00  0.00    -0.646 OA
ENDBRANCH  72  79
ENDBRANCH  65  66
ENDBRANCH  56  65
BRANCH  58  82
ATOM     82  C6  SGN d 505     -17.869  52.104 172.392  0.00  0.00     0.198 C 
BRANCH  82  83
ATOM     83  O6  SGN d 505     -18.990  51.296 172.509  0.00  0.00    -0.235 OA
BRANCH  83  84
ATOM     84  S2  SGN d 505     -20.368  51.540 171.909  0.00  0.00     0.252 S 
ATOM     85  O6S SGN d 505     -21.324  51.479 173.007  0.00  0.00    -0.572 OA
ATOM     86  O4S SGN d 505     -20.283  52.855 171.316  0.00  0.00    -0.572 OA
ATOM     87  O5S SGN d 505     -20.545  50.467 170.963  0.00  0.00    -0.572 OA
ENDBRANCH  83  84
ENDBRANCH  82  83
ENDBRANCH  58  82
ENDBRANCH  52  53
ENDBRANCH   7  52
TORSDOF 27

ENDMDL
MODEL 60
REMARK VINA RESULT:       5.0      5.470     10.408
REMARK  27 active torsions:
REMARK  status: ('A' for Active; 'I' for Inactive)
REMARK    1  A    between atoms: C2_1  and  O2_78 
REMARK    2  A    between atoms: C1_3  and  O4_50 
REMARK    3  A    between atoms: O4_5  and  C4_58 
REMARK    4  A    between atoms: O4_5  and  C1_27 
REMARK    5  A    between atoms: C2_6  and  N_39 
REMARK    6  A    between atoms: S1_9  and  N_39 
REMARK    7  A    between atoms: C6_10  and  C5_52 
REMARK    8  A    between atoms: C2_12  and  N_73 
REMARK    9  A    between atoms: C2_19  and  O2_24 
REMARK   10  A    between atoms: C2_21  and  O2_44 
REMARK   11  A    between atoms: S2_23  and  O6_65 
REMARK   12  A    between atoms: O2_24  and  S_54 
REMARK   13  A    between atoms: C1_28  and  O4_60 
REMARK   14  A    between atoms: C5_29  and  C6_38 
REMARK   15  A    between atoms: C5_30  and  C6_33 
REMARK   16  A    between atoms: S1_34  and  N_73 
REMARK   17  A    between atoms: C5_41  and  C6_46 
REMARK   18  A    between atoms: S_43  and  O2_44 
REMARK   19  A    between atoms: C6_46  and  O6_72 
REMARK   20  A    between atoms: O4_50  and  C4_71 
REMARK   21  A    between atoms: C1_56  and  O4_64 
REMARK   22  A    between atoms: O4_60  and  C4_83 
REMARK   23  A    between atoms: C4_61  and  O4_64 
REMARK   24  A    between atoms: S2_63  and  O6_72 
REMARK   25  A    between atoms: O6_65  and  C6_67 
REMARK   26  A    between atoms: C6_67  and  C5_75 
REMARK   27  A    between atoms: S_76  and  O2_78 
ROOT
ATOM      1  C2  IDS d 504     -16.252  52.577 176.148  0.00  0.00     0.226 C 
ATOM      2  O3  IDS d 504     -15.109  54.551 177.048  0.00  0.00    -0.218 OA
ATOM      3  O5  IDS d 504     -14.852  52.556 174.154  0.00  0.00    -0.318 OA
ATOM      4  C5  IDS d 504     -14.555  53.930 174.254  0.00  0.00     0.234 C 
ATOM      5  C1  IDS d 504     -15.107  51.915 175.409  0.00  0.00     0.269 C 
ATOM      6  C3  IDS d 504     -16.137  54.150 176.152  0.00  0.00     0.216 C 
ATOM      7  C4  IDS d 504     -15.770  54.691 174.779  0.00  0.00     0.189 C 
ENDROOT
BRANCH   5   8
ATOM      8  O4  SGN d 503     -13.986  51.911 176.245  0.00  0.00    -0.326 OA
BRANCH   8   9
ATOM      9  C4  SGN d 503     -13.282  50.712 176.244  0.00  0.00     0.180 C 
ATOM     10  C3  SGN d 503     -14.285  49.561 176.252  0.00  0.00     0.210 C 
ATOM     11  C2  SGN d 503     -13.527  48.266 176.029  0.00  0.00     0.207 C 
ATOM     12  O3  SGN d 503     -14.918  49.538 177.518  0.00  0.00    -0.218 OA
ATOM     13  C1  SGN d 503     -12.651  48.332 174.770  0.00  0.00     0.263 C 
ATOM     14  O5  SGN d 503     -11.768  49.421 174.869  0.00  0.00    -0.327 OA
ATOM     15  C5  SGN d 503     -12.415  50.651 174.974  0.00  0.00     0.179 C 
BRANCH  11  16
ATOM     16  N   SGN d 503     -14.430  47.130 175.961  0.00  0.00    -0.162 NA
BRANCH  16  17
ATOM     17  S1  SGN d 503     -14.156  45.888 176.977  0.00  0.00     0.227 S 
ATOM     18  O1S SGN d 503     -15.428  45.208 177.136  0.00  0.00    -0.577 OA
ATOM     19  O2S SGN d 503     -13.141  45.023 176.378  0.00  0.00    -0.577 OA
ATOM     20  O3S SGN d 503     -13.724  46.543 178.191  0.00  0.00    -0.577 OA
ENDBRANCH  16  17
ENDBRANCH  11  16
BRANCH  13  21
ATOM     21  O4  IDS d 502     -13.440  48.415 173.614  0.00  0.00    -0.326 OA
BRANCH  21  22
ATOM     22  C4  IDS d 502     -13.373  47.292 172.774  0.00  0.00     0.189 C 
ATOM     23  C3  IDS d 502     -14.784  46.946 172.261  0.00  0.00     0.216 C 
ATOM     24  O3  IDS d 502     -14.736  45.704 171.586  0.00  0.00    -0.218 OA
ATOM     25  C2  IDS d 502     -15.283  48.005 171.273  0.00  0.00     0.229 C 
ATOM     26  C1  IDS d 502     -14.237  48.329 170.211  0.00  0.00     0.301 C 
ATOM     27  O1  IDS d 502     -14.173  47.244 169.323  0.00  0.00    -0.187 OA
ATOM     28  O5  IDS d 502     -12.992  48.625 170.793  0.00  0.00    -0.316 OA
ATOM     29  C5  IDS d 502     -12.452  47.593 171.595  0.00  0.00     0.234 C 
BRANCH  25  30
ATOM     30  O2  IDS d 502     -15.534  49.174 172.007  0.00  0.00    -0.232 OA
BRANCH  30  31
ATOM     31  S   IDS d 502     -16.917  49.722 172.490  0.00  0.00     0.252 S 
ATOM     32  O3S IDS d 502     -16.833  51.147 172.301  0.00  0.00    -0.572 OA
ATOM     33  O2S IDS d 502     -17.038  49.323 173.873  0.00  0.00    -0.572 OA
ATOM     34  O1S IDS d 502     -17.926  49.126 171.659  0.00  0.00    -0.572 OA
ENDBRANCH  30  31
ENDBRANCH  25  30
BRANCH  29  35
ATOM     35  C6  IDS d 502     -11.017  47.913 171.989  0.00  0.00     0.216 C 
ATOM     36  O61 IDS d 502     -10.535  48.998 171.774  0.00  0.00    -0.646 OA
ATOM     37  O62 IDS d 502     -10.318  47.082 172.537  0.00  0.00    -0.646 OA
ENDBRANCH  29  35
ENDBRANCH  21  22
ENDBRANCH  13  21
BRANCH  15  38
ATOM     38  C6  SGN d 503     -11.307  51.668 174.927  0.00  0.00     0.198 C 
BRANCH  38  39
ATOM     39  O6  SGN d 503     -10.271  51.131 174.134  0.00  0.00    -0.235 OA
BRANCH  39  40
ATOM     40  S2  SGN d 503      -8.800  51.626 174.116  0.00  0.00     0.252 S 
ATOM     41  O4S SGN d 503      -8.718  52.751 173.248  0.00  0.00    -0.572 OA
ATOM     42  O5S SGN d 503      -8.447  51.969 175.490  0.00  0.00    -0.572 OA
ATOM     43  O6S SGN d 503      -8.088  50.538 173.568  0.00  0.00    -0.572 OA
ENDBRANCH  39  40
ENDBRANCH  38  39
ENDBRANCH  15  38
ENDBRANCH   8   9
ENDBRANCH   5   8
BRANCH   1  44
ATOM     44  O2  IDS d 504     -17.475  52.167 175.540  0.00  0.00    -0.233 OA
BRANCH  44  45
ATOM     45  S   IDS d 504     -18.628  51.402 176.216  0.00  0.00     0.252 S 
ATOM     46  O3S IDS d 504     -19.127  52.323 177.167  0.00  0.00    -0.572 OA
ATOM     47  O2S IDS d 504     -18.082  50.198 176.770  0.00  0.00    -0.572 OA
ATOM     48  O1S IDS d 504     -19.575  51.126 175.198  0.00  0.00    -0.572 OA
ENDBRANCH  44  45
ENDBRANCH   1  44
BRANCH   4  49
ATOM     49  C6  IDS d 504     -13.979  54.453 172.928  0.00  0.00     0.216 C 
ATOM     50  O62 IDS d 504     -12.962  55.150 172.906  0.00  0.00    -0.646 OA
ATOM     51  O61 IDS d 504     -14.527  54.204 171.862  0.00  0.00    -0.646 OA
ENDBRANCH   4  49
BRANCH   7  52
ATOM     52  O4  IDS d 504     -16.871  54.522 173.897  0.00  0.00    -0.326 OA
BRANCH  52  53
ATOM     53  C1  SGN d 505     -17.785  55.584 173.921  0.00  0.00     0.263 C 
ATOM     54  C2  SGN d 505     -18.993  55.299 173.051  0.00  0.00     0.207 C 
ATOM     55  C3  SGN d 505     -18.593  55.236 171.564  0.00  0.00     0.210 C 
ATOM     56  C4  SGN d 505     -17.927  56.607 171.249  0.00  0.00     0.180 C 
ATOM     57  O3  SGN d 505     -19.770  55.063 170.786  0.00  0.00    -0.218 OA
ATOM     58  C5  SGN d 505     -16.751  56.731 172.162  0.00  0.00     0.179 C 
ATOM     59  O5  SGN d 505     -17.170  56.766 173.492  0.00  0.00    -0.327 OA
BRANCH  54  60
ATOM     60  N   SGN d 505     -19.698  54.104 173.569  0.00  0.00    -0.162 NA
BRANCH  60  61
ATOM     61  S1  SGN d 505     -21.172  54.344 174.330  0.00  0.00     0.227 S 
ATOM     62  O3S SGN d 505     -20.892  54.663 175.684  0.00  0.00    -0.577 OA
ATOM     63  O1S SGN d 505     -21.858  55.410 173.629  0.00  0.00    -0.577 OA
ATOM     64  O2S SGN d 505     -21.859  53.079 174.218  0.00  0.00    -0.577 OA
ENDBRANCH  60  61
ENDBRANCH  54  60
BRANCH  56  65
ATOM     65  O4  SGN d 505     -17.415  56.750 169.940  0.00  0.00    -0.326 OA
BRANCH  65  66
ATOM     66  C1  IDS d 506     -18.186  57.129 168.852  0.00  0.00     0.269 C 
ATOM     67  C2  IDS d 506     -17.306  57.123 167.594  0.00  0.00     0.226 C 
ATOM     68  C3  IDS d 506     -17.958  57.848 166.384  0.00  0.00     0.219 C 
ATOM     69  O3  IDS d 506     -18.837  56.935 165.730  0.00  0.00    -0.218 OA
ATOM     70  C4  IDS d 506     -18.760  59.108 166.773  0.00  0.00     0.223 C 
ATOM     71  O4  IDS d 506     -17.837  60.161 166.924  0.00  0.00    -0.217 OA
ATOM     72  C5  IDS d 506     -19.512  58.887 168.090  0.00  0.00     0.237 C 
ATOM     73  O5  IDS d 506     -18.636  58.442 169.072  0.00  0.00    -0.318 OA
BRANCH  67  74
ATOM     74  O2  IDS d 506     -16.081  57.781 167.853  0.00  0.00    -0.233 OA
BRANCH  74  75
ATOM     75  S   IDS d 506     -14.609  57.191 167.764  0.00  0.00     0.252 S 
ATOM     76  O1S IDS d 506     -14.781  55.773 167.677  0.00  0.00    -0.572 OA
ATOM     77  O2S IDS d 506     -13.992  57.709 166.576  0.00  0.00    -0.572 OA
ATOM     78  O3S IDS d 506     -13.948  57.612 168.980  0.00  0.00    -0.572 OA
ENDBRANCH  74  75
ENDBRANCH  67  74
BRANCH  72  79
ATOM     79  C6  IDS d 506     -20.309  60.064 168.622  0.00  0.00     0.217 C 
ATOM     80  O61 IDS d 506     -21.205  60.552 167.947  0.00  0.00    -0.646 OA
ATOM     81  O62 IDS d 506     -20.077  60.562 169.710  0.00  0.00    -0.646 OA
ENDBRANCH  72  79
ENDBRANCH  65  66
ENDBRANCH  56  65
BRANCH  58  82
ATOM     82  C6  SGN d 505     -15.970  57.984 171.936  0.00  0.00     0.198 C 
BRANCH  82  83
ATOM     83  O6  SGN d 505     -14.823  57.841 172.701  0.00  0.00    -0.235 OA
BRANCH  83  84
ATOM     84  S2  SGN d 505     -14.240  58.845 173.685  0.00  0.00     0.252 S 
ATOM     85  O6S SGN d 505     -15.361  59.589 174.244  0.00  0.00    -0.572 OA
ATOM     86  O4S SGN d 505     -13.559  58.038 174.672  0.00  0.00    -0.572 OA
ATOM     87  O5S SGN d 505     -13.371  59.673 172.887  0.00  0.00    -0.572 OA
ENDBRANCH  83  84
ENDBRANCH  82  83
ENDBRANCH  58  82
ENDBRANCH  52  53
ENDBRANCH   7  52
TORSDOF 27

ENDMDL
MODEL 61
REMARK VINA RESULT:       5.0      3.044     10.936
REMARK  27 active torsions:
REMARK  status: ('A' for Active; 'I' for Inactive)
REMARK    1  A    between atoms: C2_1  and  O2_78 
REMARK    2  A    between atoms: C1_3  and  O4_50 
REMARK    3  A    between atoms: O4_5  and  C4_58 
REMARK    4  A    between atoms: O4_5  and  C1_27 
REMARK    5  A    between atoms: C2_6  and  N_39 
REMARK    6  A    between atoms: S1_9  and  N_39 
REMARK    7  A    between atoms: C6_10  and  C5_52 
REMARK    8  A    between atoms: C2_12  and  N_73 
REMARK    9  A    between atoms: C2_19  and  O2_24 
REMARK   10  A    between atoms: C2_21  and  O2_44 
REMARK   11  A    between atoms: S2_23  and  O6_65 
REMARK   12  A    between atoms: O2_24  and  S_54 
REMARK   13  A    between atoms: C1_28  and  O4_60 
REMARK   14  A    between atoms: C5_29  and  C6_38 
REMARK   15  A    between atoms: C5_30  and  C6_33 
REMARK   16  A    between atoms: S1_34  and  N_73 
REMARK   17  A    between atoms: C5_41  and  C6_46 
REMARK   18  A    between atoms: S_43  and  O2_44 
REMARK   19  A    between atoms: C6_46  and  O6_72 
REMARK   20  A    between atoms: O4_50  and  C4_71 
REMARK   21  A    between atoms: C1_56  and  O4_64 
REMARK   22  A    between atoms: O4_60  and  C4_83 
REMARK   23  A    between atoms: C4_61  and  O4_64 
REMARK   24  A    between atoms: S2_63  and  O6_72 
REMARK   25  A    between atoms: O6_65  and  C6_67 
REMARK   26  A    between atoms: C6_67  and  C5_75 
REMARK   27  A    between atoms: S_76  and  O2_78 
ROOT
ATOM      1  C2  IDS d 504     -11.724  47.187 171.036  0.00  0.00     0.226 C 
ATOM      2  O3  IDS d 504     -11.616  45.258 172.546  0.00  0.00    -0.218 OA
ATOM      3  O5  IDS d 504     -10.901  48.703 172.756  0.00  0.00    -0.318 OA
ATOM      4  C5  IDS d 504     -11.339  47.871 173.807  0.00  0.00     0.234 C 
ATOM      5  C1  IDS d 504     -10.558  48.004 171.555  0.00  0.00     0.269 C 
ATOM      6  C3  IDS d 504     -12.435  46.359 172.174  0.00  0.00     0.216 C 
ATOM      7  C4  IDS d 504     -12.655  47.195 173.426  0.00  0.00     0.189 C 
ENDROOT
BRANCH   5   8
ATOM      8  O4  SGN d 503      -9.465  47.149 171.727  0.00  0.00    -0.326 OA
BRANCH   8   9
ATOM      9  C4  SGN d 503      -8.268  47.654 171.232  0.00  0.00     0.180 C 
ATOM     10  C3  SGN d 503      -8.373  49.175 171.168  0.00  0.00     0.210 C 
ATOM     11  C2  SGN d 503      -7.002  49.736 170.839  0.00  0.00     0.207 C 
ATOM     12  O3  SGN d 503      -9.289  49.511 170.142  0.00  0.00    -0.218 OA
ATOM     13  C1  SGN d 503      -5.931  49.216 171.809  0.00  0.00     0.263 C 
ATOM     14  O5  SGN d 503      -5.919  47.810 171.786  0.00  0.00    -0.327 OA
ATOM     15  C5  SGN d 503      -7.128  47.241 172.179  0.00  0.00     0.179 C 
BRANCH  11  16
ATOM     16  N   SGN d 503      -7.013  51.188 170.825  0.00  0.00    -0.162 NA
BRANCH  16  17
ATOM     17  S1  SGN d 503      -6.013  51.939 169.783  0.00  0.00     0.227 S 
ATOM     18  O1S SGN d 503      -4.694  51.893 170.385  0.00  0.00    -0.577 OA
ATOM     19  O2S SGN d 503      -6.060  51.224 168.509  0.00  0.00    -0.577 OA
ATOM     20  O3S SGN d 503      -6.546  53.281 169.721  0.00  0.00    -0.577 OA
ENDBRANCH  16  17
ENDBRANCH  11  16
BRANCH  13  21
ATOM     21  O4  IDS d 502      -6.147  49.706 173.104  0.00  0.00    -0.326 OA
BRANCH  21  22
ATOM     22  C4  IDS d 502      -5.030  50.319 173.695  0.00  0.00     0.189 C 
ATOM     23  C3  IDS d 502      -5.236  51.845 173.731  0.00  0.00     0.216 C 
ATOM     24  O3  IDS d 502      -4.031  52.462 174.140  0.00  0.00    -0.218 OA
ATOM     25  C2  IDS d 502      -6.329  52.227 174.734  0.00  0.00     0.229 C 
ATOM     26  C1  IDS d 502      -6.130  51.539 176.081  0.00  0.00     0.301 C 
ATOM     27  O1  IDS d 502      -5.047  52.155 176.725  0.00  0.00    -0.187 OA
ATOM     28  O5  IDS d 502      -5.950  50.153 175.926  0.00  0.00    -0.316 OA
ATOM     29  C5  IDS d 502      -4.851  49.786 175.115  0.00  0.00     0.234 C 
BRANCH  25  30
ATOM     30  O2  IDS d 502      -7.553  51.795 174.202  0.00  0.00    -0.232 OA
BRANCH  30  31
ATOM     31  S   IDS d 502      -8.916  52.562 174.191  0.00  0.00     0.252 S 
ATOM     32  O3S IDS d 502      -9.468  52.349 175.504  0.00  0.00    -0.572 OA
ATOM     33  O2S IDS d 502      -9.694  51.969 173.128  0.00  0.00    -0.572 OA
ATOM     34  O1S IDS d 502      -8.623  53.947 173.947  0.00  0.00    -0.572 OA
ENDBRANCH  30  31
ENDBRANCH  25  30
BRANCH  29  35
ATOM     35  C6  IDS d 502      -4.603  48.286 175.192  0.00  0.00     0.216 C 
ATOM     36  O61 IDS d 502      -3.963  47.712 174.345  0.00  0.00    -0.646 OA
ATOM     37  O62 IDS d 502      -5.040  47.626 176.115  0.00  0.00    -0.646 OA
ENDBRANCH  29  35
ENDBRANCH  21  22
ENDBRANCH  13  21
BRANCH  15  38
ATOM     38  C6  SGN d 503      -6.855  45.761 172.217  0.00  0.00     0.198 C 
BRANCH  38  39
ATOM     39  O6  SGN d 503      -6.689  45.394 173.569  0.00  0.00    -0.235 OA
BRANCH  39  40
ATOM     40  S2  SGN d 503      -7.742  45.585 174.693  0.00  0.00     0.252 S 
ATOM     41  O4S SGN d 503      -7.228  45.009 175.889  0.00  0.00    -0.572 OA
ATOM     42  O5S SGN d 503      -7.965  47.021 174.831  0.00  0.00    -0.572 OA
ATOM     43  O6S SGN d 503      -8.855  44.847 174.238  0.00  0.00    -0.572 OA
ENDBRANCH  39  40
ENDBRANCH  38  39
ENDBRANCH  15  38
ENDBRANCH   8   9
ENDBRANCH   5   8
BRANCH   1  44
ATOM     44  O2  IDS d 504     -12.650  48.075 170.412  0.00  0.00    -0.233 OA
BRANCH  44  45
ATOM     45  S   IDS d 504     -13.243  47.940 168.997  0.00  0.00     0.252 S 
ATOM     46  O3S IDS d 504     -12.159  48.266 168.149  0.00  0.00    -0.572 OA
ATOM     47  O2S IDS d 504     -14.365  48.829 168.911  0.00  0.00    -0.572 OA
ATOM     48  O1S IDS d 504     -13.637  46.586 168.856  0.00  0.00    -0.572 OA
ENDBRANCH  44  45
ENDBRANCH   1  44
BRANCH   4  49
ATOM     49  C6  IDS d 504     -11.365  48.650 175.133  0.00  0.00     0.216 C 
ATOM     50  O62 IDS d 504     -11.611  49.858 175.158  0.00  0.00    -0.646 OA
ATOM     51  O61 IDS d 504     -11.126  48.091 176.196  0.00  0.00    -0.646 OA
ENDBRANCH   4  49
BRANCH   7  52
ATOM     52  O4  IDS d 504     -13.650  48.174 173.168  0.00  0.00    -0.326 OA
BRANCH  52  53
ATOM     53  C1  SGN d 505     -14.915  47.844 173.675  0.00  0.00     0.263 C 
ATOM     54  C2  SGN d 505     -16.022  48.253 172.723  0.00  0.00     0.207 C 
ATOM     55  C3  SGN d 505     -16.100  49.788 172.604  0.00  0.00     0.210 C 
ATOM     56  C4  SGN d 505     -16.320  50.312 174.052  0.00  0.00     0.180 C 
ATOM     57  O3  SGN d 505     -17.209  50.120 171.779  0.00  0.00    -0.218 OA
ATOM     58  C5  SGN d 505     -15.148  49.851 174.856  0.00  0.00     0.179 C 
ATOM     59  O5  SGN d 505     -15.118  48.458 174.917  0.00  0.00    -0.327 OA
BRANCH  54  60
ATOM     60  N   SGN d 505     -15.860  47.525 171.443  0.00  0.00    -0.162 NA
BRANCH  60  61
ATOM     61  S1  SGN d 505     -17.210  46.756 170.815  0.00  0.00     0.227 S 
ATOM     62  O3S SGN d 505     -16.804  45.446 170.444  0.00  0.00    -0.577 OA
ATOM     63  O1S SGN d 505     -18.233  46.762 171.839  0.00  0.00    -0.577 OA
ATOM     64  O2S SGN d 505     -17.580  47.539 169.659  0.00  0.00    -0.577 OA
ENDBRANCH  60  61
ENDBRANCH  54  60
BRANCH  56  65
ATOM     65  O4  SGN d 505     -16.355  51.716 174.194  0.00  0.00    -0.326 OA
BRANCH  65  66
ATOM     66  C1  IDS d 506     -17.481  52.485 173.939  0.00  0.00     0.269 C 
ATOM     67  C2  IDS d 506     -17.155  53.957 174.230  0.00  0.00     0.226 C 
ATOM     68  C3  IDS d 506     -18.415  54.863 174.309  0.00  0.00     0.219 C 
ATOM     69  O3  IDS d 506     -18.782  55.243 172.985  0.00  0.00    -0.218 OA
ATOM     70  C4  IDS d 506     -19.628  54.182 174.978  0.00  0.00     0.223 C 
ATOM     71  O4  IDS d 506     -19.449  54.286 176.372  0.00  0.00    -0.217 OA
ATOM     72  C5  IDS d 506     -19.712  52.706 174.576  0.00  0.00     0.237 C 
ATOM     73  O5  IDS d 506     -18.498  52.075 174.818  0.00  0.00    -0.318 OA
BRANCH  67  74
ATOM     74  O2  IDS d 506     -16.490  54.071 175.473  0.00  0.00    -0.233 OA
BRANCH  74  75
ATOM     75  S   IDS d 506     -15.667  55.307 176.040  0.00  0.00     0.252 S 
ATOM     76  O1S IDS d 506     -14.641  54.729 176.852  0.00  0.00    -0.572 OA
ATOM     77  O2S IDS d 506     -15.105  56.017 174.926  0.00  0.00    -0.572 OA
ATOM     78  O3S IDS d 506     -16.619  56.092 176.796  0.00  0.00    -0.572 OA
ENDBRANCH  74  75
ENDBRANCH  67  74
BRANCH  72  79
ATOM     79  C6  IDS d 506     -20.834  51.896 175.200  0.00  0.00     0.217 C 
ATOM     80  O61 IDS d 506     -21.820  52.462 175.650  0.00  0.00    -0.646 OA
ATOM     81  O62 IDS d 506     -20.783  50.681 175.285  0.00  0.00    -0.646 OA
ENDBRANCH  72  79
ENDBRANCH  65  66
ENDBRANCH  56  65
BRANCH  58  82
ATOM     82  C6  SGN d 505     -15.190  50.331 176.271  0.00  0.00     0.198 C 
BRANCH  82  83
ATOM     83  O6  SGN d 505     -14.309  49.510 176.959  0.00  0.00    -0.235 OA
BRANCH  83  84
ATOM     84  S2  SGN d 505     -14.297  49.219 178.453  0.00  0.00     0.252 S 
ATOM     85  O6S SGN d 505     -14.837  50.397 179.118  0.00  0.00    -0.572 OA
ATOM     86  O4S SGN d 505     -15.139  48.055 178.607  0.00  0.00    -0.572 OA
ATOM     87  O5S SGN d 505     -12.907  48.997 178.767  0.00  0.00    -0.572 OA
ENDBRANCH  83  84
ENDBRANCH  82  83
ENDBRANCH  58  82
ENDBRANCH  52  53
ENDBRANCH   7  52
TORSDOF 27

ENDMDL
MODEL 62
REMARK VINA RESULT:       5.0      2.420      6.297
REMARK  27 active torsions:
REMARK  status: ('A' for Active; 'I' for Inactive)
REMARK    1  A    between atoms: C2_1  and  O2_78 
REMARK    2  A    between atoms: C1_3  and  O4_50 
REMARK    3  A    between atoms: O4_5  and  C4_58 
REMARK    4  A    between atoms: O4_5  and  C1_27 
REMARK    5  A    between atoms: C2_6  and  N_39 
REMARK    6  A    between atoms: S1_9  and  N_39 
REMARK    7  A    between atoms: C6_10  and  C5_52 
REMARK    8  A    between atoms: C2_12  and  N_73 
REMARK    9  A    between atoms: C2_19  and  O2_24 
REMARK   10  A    between atoms: C2_21  and  O2_44 
REMARK   11  A    between atoms: S2_23  and  O6_65 
REMARK   12  A    between atoms: O2_24  and  S_54 
REMARK   13  A    between atoms: C1_28  and  O4_60 
REMARK   14  A    between atoms: C5_29  and  C6_38 
REMARK   15  A    between atoms: C5_30  and  C6_33 
REMARK   16  A    between atoms: S1_34  and  N_73 
REMARK   17  A    between atoms: C5_41  and  C6_46 
REMARK   18  A    between atoms: S_43  and  O2_44 
REMARK   19  A    between atoms: C6_46  and  O6_72 
REMARK   20  A    between atoms: O4_50  and  C4_71 
REMARK   21  A    between atoms: C1_56  and  O4_64 
REMARK   22  A    between atoms: O4_60  and  C4_83 
REMARK   23  A    between atoms: C4_61  and  O4_64 
REMARK   24  A    between atoms: S2_63  and  O6_72 
REMARK   25  A    between atoms: O6_65  and  C6_67 
REMARK   26  A    between atoms: C6_67  and  C5_75 
REMARK   27  A    between atoms: S_76  and  O2_78 
ROOT
ATOM      1  C2  IDS d 504     -14.292  46.173 174.539  0.00  0.00     0.226 C 
ATOM      2  O3  IDS d 504     -14.583  44.379 172.892  0.00  0.00    -0.218 OA
ATOM      3  O5  IDS d 504     -14.295  47.891 172.811  0.00  0.00    -0.318 OA
ATOM      4  C5  IDS d 504     -13.880  46.992 171.808  0.00  0.00     0.234 C 
ATOM      5  C1  IDS d 504     -15.060  47.290 173.861  0.00  0.00     0.269 C 
ATOM      6  C3  IDS d 504     -13.600  45.204 173.504  0.00  0.00     0.216 C 
ATOM      7  C4  IDS d 504     -12.904  45.972 172.391  0.00  0.00     0.189 C 
ENDROOT
BRANCH   5   8
ATOM      8  O4  SGN d 503     -16.279  46.773 173.408  0.00  0.00    -0.326 OA
BRANCH   8   9
ATOM      9  C4  SGN d 503     -17.347  47.654 173.529  0.00  0.00     0.180 C 
ATOM     10  C3  SGN d 503     -17.482  48.053 174.997  0.00  0.00     0.210 C 
ATOM     11  C2  SGN d 503     -18.499  49.176 175.095  0.00  0.00     0.207 C 
ATOM     12  O3  SGN d 503     -17.938  46.925 175.719  0.00  0.00    -0.218 OA
ATOM     13  C1  SGN d 503     -18.152  50.338 174.153  0.00  0.00     0.263 C 
ATOM     14  O5  SGN d 503     -18.056  49.860 172.834  0.00  0.00    -0.327 OA
ATOM     15  C5  SGN d 503     -17.063  48.896 172.666  0.00  0.00     0.179 C 
BRANCH  11  16
ATOM     16  N   SGN d 503     -18.632  49.651 176.461  0.00  0.00    -0.162 NA
BRANCH  16  17
ATOM     17  S1  SGN d 503     -20.100  50.166 176.940  0.00  0.00     0.227 S 
ATOM     18  O1S SGN d 503     -19.884  51.428 177.621  0.00  0.00    -0.577 OA
ATOM     19  O2S SGN d 503     -20.939  50.319 175.753  0.00  0.00    -0.577 OA
ATOM     20  O3S SGN d 503     -20.540  49.122 177.837  0.00  0.00    -0.577 OA
ENDBRANCH  16  17
ENDBRANCH  11  16
BRANCH  13  21
ATOM     21  O4  IDS d 502     -16.970  50.974 174.556  0.00  0.00    -0.326 OA
BRANCH  21  22
ATOM     22  C4  IDS d 502     -17.054  52.374 174.638  0.00  0.00     0.189 C 
ATOM     23  C3  IDS d 502     -17.059  52.805 176.117  0.00  0.00     0.216 C 
ATOM     24  O3  IDS d 502     -17.345  54.188 176.190  0.00  0.00    -0.218 OA
ATOM     25  C2  IDS d 502     -15.690  52.569 176.761  0.00  0.00     0.229 C 
ATOM     26  C1  IDS d 502     -14.554  53.114 175.900  0.00  0.00     0.301 C 
ATOM     27  O1  IDS d 502     -14.576  54.513 175.992  0.00  0.00    -0.187 OA
ATOM     28  O5  IDS d 502     -14.653  52.657 174.574  0.00  0.00    -0.316 OA
ATOM     29  C5  IDS d 502     -15.859  52.997 173.919  0.00  0.00     0.234 C 
BRANCH  25  30
ATOM     30  O2  IDS d 502     -15.519  51.182 176.879  0.00  0.00    -0.232 OA
BRANCH  30  31
ATOM     31  S   IDS d 502     -14.794  50.400 178.023  0.00  0.00     0.252 S 
ATOM     32  O3S IDS d 502     -13.390  50.538 177.730  0.00  0.00    -0.572 OA
ATOM     33  O2S IDS d 502     -15.276  49.041 177.940  0.00  0.00    -0.572 OA
ATOM     34  O1S IDS d 502     -15.151  51.031 179.263  0.00  0.00    -0.572 OA
ENDBRANCH  30  31
ENDBRANCH  25  30
BRANCH  29  35
ATOM     35  C6  IDS d 502     -15.779  52.663 172.436  0.00  0.00     0.216 C 
ATOM     36  O61 IDS d 502     -16.422  53.277 171.620  0.00  0.00    -0.646 OA
ATOM     37  O62 IDS d 502     -15.059  51.769 172.034  0.00  0.00    -0.646 OA
ENDBRANCH  29  35
ENDBRANCH  21  22
ENDBRANCH  13  21
BRANCH  15  38
ATOM     38  C6  SGN d 503     -17.038  48.632 171.185  0.00  0.00     0.198 C 
BRANCH  38  39
ATOM     39  O6  SGN d 503     -18.350  48.811 170.699  0.00  0.00    -0.235 OA
BRANCH  39  40
ATOM     40  S2  SGN d 503     -19.381  47.679 170.446  0.00  0.00     0.252 S 
ATOM     41  O4S SGN d 503     -20.249  47.605 171.572  0.00  0.00    -0.572 OA
ATOM     42  O5S SGN d 503     -20.101  48.021 169.223  0.00  0.00    -0.572 OA
ATOM     43  O6S SGN d 503     -18.588  46.514 170.368  0.00  0.00    -0.572 OA
ENDBRANCH  39  40
ENDBRANCH  38  39
ENDBRANCH  15  38
ENDBRANCH   8   9
ENDBRANCH   5   8
BRANCH   1  44
ATOM     44  O2  IDS d 504     -13.319  46.757 175.402  0.00  0.00    -0.233 OA
BRANCH  44  45
ATOM     45  S   IDS d 504     -13.002  46.337 176.849  0.00  0.00     0.252 S 
ATOM     46  O3S IDS d 504     -14.265  45.983 177.378  0.00  0.00    -0.572 OA
ATOM     47  O2S IDS d 504     -12.367  47.448 177.494  0.00  0.00    -0.572 OA
ATOM     48  O1S IDS d 504     -12.134  45.220 176.759  0.00  0.00    -0.572 OA
ENDBRANCH  44  45
ENDBRANCH   1  44
BRANCH   4  49
ATOM     49  C6  IDS d 504     -13.365  47.759 170.579  0.00  0.00     0.216 C 
ATOM     50  O62 IDS d 504     -13.352  48.992 170.557  0.00  0.00    -0.646 OA
ATOM     51  O61 IDS d 504     -12.972  47.163 169.584  0.00  0.00    -0.646 OA
ENDBRANCH   4  49
BRANCH   7  52
ATOM     52  O4  IDS d 504     -11.763  46.632 172.919  0.00  0.00    -0.326 OA
BRANCH  52  53
ATOM     53  C1  SGN d 505     -10.551  46.204 172.359  0.00  0.00     0.263 C 
ATOM     54  C2  SGN d 505      -9.421  46.263 173.368  0.00  0.00     0.207 C 
ATOM     55  C3  SGN d 505      -9.112  47.721 173.758  0.00  0.00     0.210 C 
ATOM     56  C4  SGN d 505      -8.775  48.451 172.425  0.00  0.00     0.180 C 
ATOM     57  O3  SGN d 505      -7.987  47.727 174.628  0.00  0.00    -0.218 OA
ATOM     58  C5  SGN d 505      -9.982  48.327 171.554  0.00  0.00     0.179 C 
ATOM     59  O5  SGN d 505     -10.224  46.988 171.246  0.00  0.00    -0.327 OA
BRANCH  54  60
ATOM     60  N   SGN d 505      -9.726  45.355 174.498  0.00  0.00    -0.162 NA
BRANCH  60  61
ATOM     61  S1  SGN d 505      -8.665  44.089 174.782  0.00  0.00     0.227 S 
ATOM     62  O3S SGN d 505      -8.106  44.298 176.070  0.00  0.00    -0.577 OA
ATOM     63  O1S SGN d 505      -9.418  42.856 174.685  0.00  0.00    -0.577 OA
ATOM     64  O2S SGN d 505      -7.662  44.205 173.749  0.00  0.00    -0.577 OA
ENDBRANCH  60  61
ENDBRANCH  54  60
BRANCH  56  65
ATOM     65  O4  SGN d 505      -8.522  49.836 172.536  0.00  0.00    -0.326 OA
BRANCH  65  66
ATOM     66  C1  IDS d 506      -7.255  50.393 172.446  0.00  0.00     0.269 C 
ATOM     67  C2  IDS d 506      -7.281  51.791 173.081  0.00  0.00     0.226 C 
ATOM     68  C3  IDS d 506      -6.026  52.643 172.744  0.00  0.00     0.219 C 
ATOM     69  O3  IDS d 506      -4.984  52.291 173.649  0.00  0.00    -0.218 OA
ATOM     70  C4  IDS d 506      -5.511  52.447 171.302  0.00  0.00     0.223 C 
ATOM     71  O4  IDS d 506      -6.303  53.255 170.462  0.00  0.00    -0.217 OA
ATOM     72  C5  IDS d 506      -5.636  50.980 170.876  0.00  0.00     0.237 C 
ATOM     73  O5  IDS d 506      -6.934  50.531 171.085  0.00  0.00    -0.318 OA
BRANCH  67  74
ATOM     74  O2  IDS d 506      -8.404  52.515 172.617  0.00  0.00    -0.233 OA
BRANCH  74  75
ATOM     75  S   IDS d 506      -9.352  53.493 173.436  0.00  0.00     0.252 S 
ATOM     76  O1S IDS d 506      -8.641  53.773 174.645  0.00  0.00    -0.572 OA
ATOM     77  O2S IDS d 506      -9.540  54.686 172.660  0.00  0.00    -0.572 OA
ATOM     78  O3S IDS d 506     -10.577  52.753 173.653  0.00  0.00    -0.572 OA
ENDBRANCH  74  75
ENDBRANCH  67  74
BRANCH  72  79
ATOM     79  C6  IDS d 506      -5.210  50.647 169.459  0.00  0.00     0.217 C 
ATOM     80  O61 IDS d 506      -4.152  50.066 169.259  0.00  0.00    -0.646 OA
ATOM     81  O62 IDS d 506      -5.885  50.953 168.492  0.00  0.00    -0.646 OA
ENDBRANCH  72  79
ENDBRANCH  65  66
ENDBRANCH  56  65
BRANCH  58  82
ATOM     82  C6  SGN d 505      -9.830  49.035 170.247  0.00  0.00     0.198 C 
BRANCH  82  83
ATOM     83  O6  SGN d 505      -9.868  48.037 169.286  0.00  0.00    -0.235 OA
BRANCH  83  84
ATOM     84  S2  SGN d 505      -9.229  48.062 167.905  0.00  0.00     0.252 S 
ATOM     85  O6S SGN d 505      -8.244  49.136 167.913  0.00  0.00    -0.572 OA
ATOM     86  O4S SGN d 505      -8.629  46.756 167.754  0.00  0.00    -0.572 OA
ATOM     87  O5S SGN d 505     -10.324  48.325 167.004  0.00  0.00    -0.572 OA
ENDBRANCH  83  84
ENDBRANCH  82  83
ENDBRANCH  58  82
ENDBRANCH  52  53
ENDBRANCH   7  52
TORSDOF 27

ENDMDL
MODEL 63
REMARK VINA RESULT:       5.1      3.222     11.019
REMARK  27 active torsions:
REMARK  status: ('A' for Active; 'I' for Inactive)
REMARK    1  A    between atoms: C2_1  and  O2_78 
REMARK    2  A    between atoms: C1_3  and  O4_50 
REMARK    3  A    between atoms: O4_5  and  C4_58 
REMARK    4  A    between atoms: O4_5  and  C1_27 
REMARK    5  A    between atoms: C2_6  and  N_39 
REMARK    6  A    between atoms: S1_9  and  N_39 
REMARK    7  A    between atoms: C6_10  and  C5_52 
REMARK    8  A    between atoms: C2_12  and  N_73 
REMARK    9  A    between atoms: C2_19  and  O2_24 
REMARK   10  A    between atoms: C2_21  and  O2_44 
REMARK   11  A    between atoms: S2_23  and  O6_65 
REMARK   12  A    between atoms: O2_24  and  S_54 
REMARK   13  A    between atoms: C1_28  and  O4_60 
REMARK   14  A    between atoms: C5_29  and  C6_38 
REMARK   15  A    between atoms: C5_30  and  C6_33 
REMARK   16  A    between atoms: S1_34  and  N_73 
REMARK   17  A    between atoms: C5_41  and  C6_46 
REMARK   18  A    between atoms: S_43  and  O2_44 
REMARK   19  A    between atoms: C6_46  and  O6_72 
REMARK   20  A    between atoms: O4_50  and  C4_71 
REMARK   21  A    between atoms: C1_56  and  O4_64 
REMARK   22  A    between atoms: O4_60  and  C4_83 
REMARK   23  A    between atoms: C4_61  and  O4_64 
REMARK   24  A    between atoms: S2_63  and  O6_72 
REMARK   25  A    between atoms: O6_65  and  C6_67 
REMARK   26  A    between atoms: C6_67  and  C5_75 
REMARK   27  A    between atoms: S_76  and  O2_78 
ROOT
ATOM      1  C2  IDS d 504     -17.118  51.415 174.471  0.00  0.00     0.226 C 
ATOM      2  O3  IDS d 504     -18.043  52.262 172.363  0.00  0.00    -0.218 OA
ATOM      3  O5  IDS d 504     -16.845  49.171 173.562  0.00  0.00    -0.318 OA
ATOM      4  C5  IDS d 504     -17.843  49.362 172.584  0.00  0.00     0.234 C 
ATOM      5  C1  IDS d 504     -16.158  50.368 173.944  0.00  0.00     0.269 C 
ATOM      6  C3  IDS d 504     -18.395  51.576 173.558  0.00  0.00     0.216 C 
ATOM      7  C4  IDS d 504     -18.968  50.228 173.148  0.00  0.00     0.189 C 
ENDROOT
BRANCH   5   8
ATOM      8  O4  SGN d 503     -15.432  50.929 172.889  0.00  0.00    -0.326 OA
BRANCH   8   9
ATOM      9  C4  SGN d 503     -14.125  50.464 172.791  0.00  0.00     0.180 C 
ATOM     10  C3  SGN d 503     -13.495  50.493 174.181  0.00  0.00     0.210 C 
ATOM     11  C2  SGN d 503     -12.154  49.784 174.113  0.00  0.00     0.207 C 
ATOM     12  O3  SGN d 503     -13.306  51.846 174.551  0.00  0.00    -0.218 OA
ATOM     13  C1  SGN d 503     -12.287  48.379 173.508  0.00  0.00     0.263 C 
ATOM     14  O5  SGN d 503     -12.874  48.470 172.234  0.00  0.00    -0.327 OA
ATOM     15  C5  SGN d 503     -14.153  49.023 172.252  0.00  0.00     0.179 C 
BRANCH  11  16
ATOM     16  N   SGN d 503     -11.524  49.718 175.420  0.00  0.00    -0.162 NA
BRANCH  16  17
ATOM     17  S1  SGN d 503     -10.099  50.480 175.609  0.00  0.00     0.227 S 
ATOM     18  O1S SGN d 503     -10.408  51.783 176.167  0.00  0.00    -0.577 OA
ATOM     19  O2S SGN d 503      -9.269  49.681 176.508  0.00  0.00    -0.577 OA
ATOM     20  O3S SGN d 503      -9.587  50.564 174.259  0.00  0.00    -0.577 OA
ENDBRANCH  16  17
ENDBRANCH  11  16
BRANCH  13  21
ATOM     21  O4  IDS d 502     -13.023  47.538 174.353  0.00  0.00    -0.326 OA
BRANCH  21  22
ATOM     22  C4  IDS d 502     -12.409  46.307 174.638  0.00  0.00     0.189 C 
ATOM     23  C3  IDS d 502     -11.766  46.362 176.037  0.00  0.00     0.216 C 
ATOM     24  O3  IDS d 502     -10.984  45.199 176.229  0.00  0.00    -0.218 OA
ATOM     25  C2  IDS d 502     -12.836  46.401 177.131  0.00  0.00     0.229 C 
ATOM     26  C1  IDS d 502     -13.905  45.334 176.920  0.00  0.00     0.301 C 
ATOM     27  O1  IDS d 502     -13.341  44.089 177.239  0.00  0.00    -0.187 OA
ATOM     28  O5  IDS d 502     -14.418  45.375 175.611  0.00  0.00    -0.316 OA
ATOM     29  C5  IDS d 502     -13.455  45.195 174.592  0.00  0.00     0.234 C 
BRANCH  25  30
ATOM     30  O2  IDS d 502     -13.457  47.657 177.063  0.00  0.00    -0.232 OA
BRANCH  30  31
ATOM     31  S   IDS d 502     -14.095  48.475 178.234  0.00  0.00     0.252 S 
ATOM     32  O3S IDS d 502     -13.290  49.664 178.333  0.00  0.00    -0.572 OA
ATOM     33  O2S IDS d 502     -14.021  47.622 179.397  0.00  0.00    -0.572 OA
ATOM     34  O1S IDS d 502     -15.450  48.769 177.858  0.00  0.00    -0.572 OA
ENDBRANCH  30  31
ENDBRANCH  25  30
BRANCH  29  35
ATOM     35  C6  IDS d 502     -14.130  45.029 173.238  0.00  0.00     0.216 C 
ATOM     36  O61 IDS d 502     -13.487  44.808 172.240  0.00  0.00    -0.646 OA
ATOM     37  O62 IDS d 502     -15.338  45.109 173.126  0.00  0.00    -0.646 OA
ENDBRANCH  29  35
ENDBRANCH  21  22
ENDBRANCH  13  21
BRANCH  15  38
ATOM     38  C6  SGN d 503     -14.640  48.898 170.834  0.00  0.00     0.198 C 
BRANCH  38  39
ATOM     39  O6  SGN d 503     -14.099  47.709 170.301  0.00  0.00    -0.235 OA
BRANCH  39  40
ATOM     40  S2  SGN d 503     -13.829  47.433 168.798  0.00  0.00     0.252 S 
ATOM     41  O4S SGN d 503     -12.638  48.118 168.424  0.00  0.00    -0.572 OA
ATOM     42  O5S SGN d 503     -13.698  45.987 168.645  0.00  0.00    -0.572 OA
ATOM     43  O6S SGN d 503     -14.942  48.006 168.147  0.00  0.00    -0.572 OA
ENDBRANCH  39  40
ENDBRANCH  38  39
ENDBRANCH  15  38
ENDBRANCH   8   9
ENDBRANCH   5   8
BRANCH   1  44
ATOM     44  O2  IDS d 504     -17.496  51.050 175.797  0.00  0.00    -0.233 OA
BRANCH  44  45
ATOM     45  S   IDS d 504     -17.658  51.995 177.001  0.00  0.00     0.252 S 
ATOM     46  O3S IDS d 504     -18.981  51.753 177.440  0.00  0.00    -0.572 OA
ATOM     47  O2S IDS d 504     -17.411  53.330 176.540  0.00  0.00    -0.572 OA
ATOM     48  O1S IDS d 504     -16.699  51.588 177.961  0.00  0.00    -0.572 OA
ENDBRANCH  44  45
ENDBRANCH   1  44
BRANCH   4  49
ATOM     49  C6  IDS d 504     -18.289  48.011 172.001  0.00  0.00     0.216 C 
ATOM     50  O62 IDS d 504     -17.832  46.950 172.430  0.00  0.00    -0.646 OA
ATOM     51  O61 IDS d 504     -19.096  47.958 171.082  0.00  0.00    -0.646 OA
ENDBRANCH   4  49
BRANCH   7  52
ATOM     52  O4  IDS d 504     -19.548  49.599 174.282  0.00  0.00    -0.326 OA
BRANCH  52  53
ATOM     53  C1  SGN d 505     -20.916  49.331 174.143  0.00  0.00     0.263 C 
ATOM     54  C2  SGN d 505     -21.658  49.525 175.451  0.00  0.00     0.207 C 
ATOM     55  C3  SGN d 505     -21.215  48.476 176.490  0.00  0.00     0.210 C 
ATOM     56  C4  SGN d 505     -21.492  47.092 175.835  0.00  0.00     0.180 C 
ATOM     57  O3  SGN d 505     -22.005  48.640 177.661  0.00  0.00    -0.218 OA
ATOM     58  C5  SGN d 505     -20.681  47.044 174.580  0.00  0.00     0.179 C 
ATOM     59  O5  SGN d 505     -21.113  48.023 173.685  0.00  0.00    -0.327 OA
BRANCH  54  60
ATOM     60  N   SGN d 505     -21.530  50.937 175.881  0.00  0.00    -0.162 NA
BRANCH  60  61
ATOM     61  S1  SGN d 505     -22.556  52.057 175.174  0.00  0.00     0.227 S 
ATOM     62  O3S SGN d 505     -22.205  53.329 175.698  0.00  0.00    -0.577 OA
ATOM     63  O1S SGN d 505     -22.381  51.967 173.740  0.00  0.00    -0.577 OA
ATOM     64  O2S SGN d 505     -23.881  51.664 175.593  0.00  0.00    -0.577 OA
ENDBRANCH  60  61
ENDBRANCH  54  60
BRANCH  56  65
ATOM     65  O4  SGN d 505     -21.094  45.969 176.593  0.00  0.00    -0.326 OA
BRANCH  65  66
ATOM     66  C1  IDS d 506     -21.984  45.134 177.251  0.00  0.00     0.269 C 
ATOM     67  C2  IDS d 506     -21.192  44.050 177.996  0.00  0.00     0.226 C 
ATOM     68  C3  IDS d 506     -22.074  42.869 178.486  0.00  0.00     0.219 C 
ATOM     69  O3  IDS d 506     -22.671  43.236 179.728  0.00  0.00    -0.218 OA
ATOM     70  C4  IDS d 506     -23.195  42.480 177.499  0.00  0.00     0.223 C 
ATOM     71  O4  IDS d 506     -22.616  41.657 176.513  0.00  0.00    -0.217 OA
ATOM     72  C5  IDS d 506     -23.797  43.727 176.842  0.00  0.00     0.237 C 
ATOM     73  O5  IDS d 506     -22.791  44.507 176.286  0.00  0.00    -0.318 OA
BRANCH  67  74
ATOM     74  O2  IDS d 506     -20.205  43.499 177.146  0.00  0.00    -0.233 OA
BRANCH  74  75
ATOM     75  S   IDS d 506     -18.665  43.254 177.454  0.00  0.00     0.252 S 
ATOM     76  O1S IDS d 506     -18.042  44.528 177.268  0.00  0.00    -0.572 OA
ATOM     77  O2S IDS d 506     -18.547  42.816 178.816  0.00  0.00    -0.572 OA
ATOM     78  O3S IDS d 506     -18.231  42.261 176.495  0.00  0.00    -0.572 OA
ENDBRANCH  74  75
ENDBRANCH  67  74
BRANCH  72  79
ATOM     79  C6  IDS d 506     -24.883  43.493 175.808  0.00  0.00     0.217 C 
ATOM     80  O61 IDS d 506     -24.989  44.247 174.851  0.00  0.00    -0.646 OA
ATOM     81  O62 IDS d 506     -25.678  42.574 175.903  0.00  0.00    -0.646 OA
ENDBRANCH  72  79
ENDBRANCH  65  66
ENDBRANCH  56  65
BRANCH  58  82
ATOM     82  C6  SGN d 505     -20.800  45.739 173.862  0.00  0.00     0.198 C 
BRANCH  82  83
ATOM     83  O6  SGN d 505     -21.949  45.851 173.093  0.00  0.00    -0.235 OA
BRANCH  83  84
ATOM     84  S2  SGN d 505     -22.202  45.242 171.722  0.00  0.00     0.252 S 
ATOM     85  O6S SGN d 505     -22.039  46.312 170.747  0.00  0.00    -0.572 OA
ATOM     86  O4S SGN d 505     -21.201  44.208 171.588  0.00  0.00    -0.572 OA
ATOM     87  O5S SGN d 505     -23.558  44.757 171.786  0.00  0.00    -0.572 OA
ENDBRANCH  83  84
ENDBRANCH  82  83
ENDBRANCH  58  82
ENDBRANCH  52  53
ENDBRANCH   7  52
TORSDOF 27

ENDMDL
MODEL 64
REMARK VINA RESULT:       5.1      2.388     10.205
REMARK  27 active torsions:
REMARK  status: ('A' for Active; 'I' for Inactive)
REMARK    1  A    between atoms: C2_1  and  O2_78 
REMARK    2  A    between atoms: C1_3  and  O4_50 
REMARK    3  A    between atoms: O4_5  and  C4_58 
REMARK    4  A    between atoms: O4_5  and  C1_27 
REMARK    5  A    between atoms: C2_6  and  N_39 
REMARK    6  A    between atoms: S1_9  and  N_39 
REMARK    7  A    between atoms: C6_10  and  C5_52 
REMARK    8  A    between atoms: C2_12  and  N_73 
REMARK    9  A    between atoms: C2_19  and  O2_24 
REMARK   10  A    between atoms: C2_21  and  O2_44 
REMARK   11  A    between atoms: S2_23  and  O6_65 
REMARK   12  A    between atoms: O2_24  and  S_54 
REMARK   13  A    between atoms: C1_28  and  O4_60 
REMARK   14  A    between atoms: C5_29  and  C6_38 
REMARK   15  A    between atoms: C5_30  and  C6_33 
REMARK   16  A    between atoms: S1_34  and  N_73 
REMARK   17  A    between atoms: C5_41  and  C6_46 
REMARK   18  A    between atoms: S_43  and  O2_44 
REMARK   19  A    between atoms: C6_46  and  O6_72 
REMARK   20  A    between atoms: O4_50  and  C4_71 
REMARK   21  A    between atoms: C1_56  and  O4_64 
REMARK   22  A    between atoms: O4_60  and  C4_83 
REMARK   23  A    between atoms: C4_61  and  O4_64 
REMARK   24  A    between atoms: S2_63  and  O6_72 
REMARK   25  A    between atoms: O6_65  and  C6_67 
REMARK   26  A    between atoms: C6_67  and  C5_75 
REMARK   27  A    between atoms: S_76  and  O2_78 
ROOT
ATOM      1  C2  IDS d 504     -11.752  44.654 175.431  0.00  0.00     0.226 C 
ATOM      2  O3  IDS d 504     -11.466  44.704 177.866  0.00  0.00    -0.218 OA
ATOM      3  O5  IDS d 504     -11.386  47.055 175.242  0.00  0.00    -0.318 OA
ATOM      4  C5  IDS d 504     -11.778  47.298 176.574  0.00  0.00     0.234 C 
ATOM      5  C1  IDS d 504     -10.805  45.765 175.024  0.00  0.00     0.269 C 
ATOM      6  C3  IDS d 504     -12.421  44.916 176.834  0.00  0.00     0.216 C 
ATOM      7  C4  IDS d 504     -12.910  46.351 176.967  0.00  0.00     0.189 C 
ENDROOT
BRANCH   5   8
ATOM      8  O4  SGN d 503      -9.603  45.595 175.719  0.00  0.00    -0.326 OA
BRANCH   8   9
ATOM      9  C4  SGN d 503      -8.467  45.823 174.951  0.00  0.00     0.180 C 
ATOM     10  C3  SGN d 503      -8.515  44.905 173.731  0.00  0.00     0.210 C 
ATOM     11  C2  SGN d 503      -7.397  45.306 172.787  0.00  0.00     0.207 C 
ATOM     12  O3  SGN d 503      -8.318  43.575 174.173  0.00  0.00    -0.218 OA
ATOM     13  C1  SGN d 503      -7.449  46.804 172.453  0.00  0.00     0.263 C 
ATOM     14  O5  SGN d 503      -7.396  47.552 173.643  0.00  0.00    -0.327 OA
ATOM     15  C5  SGN d 503      -8.460  47.295 174.505  0.00  0.00     0.179 C 
BRANCH  11  16
ATOM     16  N   SGN d 503      -7.422  44.513 171.570  0.00  0.00    -0.162 NA
BRANCH  16  17
ATOM     17  S1  SGN d 503      -5.994  44.136 170.888  0.00  0.00     0.227 S 
ATOM     18  O1S SGN d 503      -5.962  44.822 169.610  0.00  0.00    -0.577 OA
ATOM     19  O2S SGN d 503      -4.928  44.588 171.780  0.00  0.00    -0.577 OA
ATOM     20  O3S SGN d 503      -6.065  42.699 170.743  0.00  0.00    -0.577 OA
ENDBRANCH  16  17
ENDBRANCH  11  16
BRANCH  13  21
ATOM     21  O4  IDS d 502      -8.593  47.112 171.704  0.00  0.00    -0.326 OA
BRANCH  21  22
ATOM     22  C4  IDS d 502      -8.340  47.762 170.485  0.00  0.00     0.189 C 
ATOM     23  C3  IDS d 502      -8.845  46.890 169.320  0.00  0.00     0.216 C 
ATOM     24  O3  IDS d 502      -8.408  47.456 168.100  0.00  0.00    -0.218 OA
ATOM     25  C2  IDS d 502     -10.375  46.837 169.297  0.00  0.00     0.229 C 
ATOM     26  C1  IDS d 502     -10.994  48.226 169.421  0.00  0.00     0.301 C 
ATOM     27  O1  IDS d 502     -10.802  48.894 168.202  0.00  0.00    -0.187 OA
ATOM     28  O5  IDS d 502     -10.459  48.929 170.513  0.00  0.00    -0.316 OA
ATOM     29  C5  IDS d 502      -9.057  49.111 170.472  0.00  0.00     0.234 C 
BRANCH  25  30
ATOM     30  O2  IDS d 502     -10.782  46.079 170.405  0.00  0.00    -0.232 OA
BRANCH  30  31
ATOM     31  S   IDS d 502     -10.992  44.531 170.482  0.00  0.00     0.252 S 
ATOM     32  O3S IDS d 502     -12.347  44.322 170.041  0.00  0.00    -0.572 OA
ATOM     33  O2S IDS d 502     -10.767  44.170 171.862  0.00  0.00    -0.572 OA
ATOM     34  O1S IDS d 502     -10.037  43.927 169.596  0.00  0.00    -0.572 OA
ENDBRANCH  30  31
ENDBRANCH  25  30
BRANCH  29  35
ATOM     35  C6  IDS d 502      -8.606  50.069 171.565  0.00  0.00     0.216 C 
ATOM     36  O61 IDS d 502      -7.435  50.275 171.773  0.00  0.00    -0.646 OA
ATOM     37  O62 IDS d 502      -9.415  50.657 172.256  0.00  0.00    -0.646 OA
ENDBRANCH  29  35
ENDBRANCH  21  22
ENDBRANCH  13  21
BRANCH  15  38
ATOM     38  C6  SGN d 503      -8.286  48.284 175.626  0.00  0.00     0.198 C 
BRANCH  38  39
ATOM     39  O6  SGN d 503      -8.838  49.511 175.201  0.00  0.00    -0.235 OA
BRANCH  39  40
ATOM     40  S2  SGN d 503      -8.361  50.918 175.647  0.00  0.00     0.252 S 
ATOM     41  O4S SGN d 503      -7.156  51.223 174.953  0.00  0.00    -0.572 OA
ATOM     42  O5S SGN d 503      -9.431  51.856 175.321  0.00  0.00    -0.572 OA
ATOM     43  O6S SGN d 503      -8.101  50.763 177.025  0.00  0.00    -0.572 OA
ENDBRANCH  39  40
ENDBRANCH  38  39
ENDBRANCH  15  38
ENDBRANCH   8   9
ENDBRANCH   5   8
BRANCH   1  44
ATOM     44  O2  IDS d 504     -12.749  44.522 174.419  0.00  0.00    -0.233 OA
BRANCH  44  45
ATOM     45  S   IDS d 504     -13.311  43.208 173.848  0.00  0.00     0.252 S 
ATOM     46  O3S IDS d 504     -12.154  42.458 173.533  0.00  0.00    -0.572 OA
ATOM     47  O2S IDS d 504     -14.138  43.542 172.725  0.00  0.00    -0.572 OA
ATOM     48  O1S IDS d 504     -14.063  42.609 174.890  0.00  0.00    -0.572 OA
ENDBRANCH  44  45
ENDBRANCH   1  44
BRANCH   4  49
ATOM     49  C6  IDS d 504     -12.075  48.792 176.783  0.00  0.00     0.216 C 
ATOM     50  O62 IDS d 504     -12.485  49.215 177.866  0.00  0.00    -0.646 OA
ATOM     51  O61 IDS d 504     -11.928  49.597 175.872  0.00  0.00    -0.646 OA
ENDBRANCH   4  49
BRANCH   7  52
ATOM     52  O4  IDS d 504     -14.029  46.546 176.114  0.00  0.00    -0.326 OA
BRANCH  52  53
ATOM     53  C1  SGN d 505     -15.248  46.660 176.796  0.00  0.00     0.263 C 
ATOM     54  C2  SGN d 505     -16.411  46.198 175.940  0.00  0.00     0.207 C 
ATOM     55  C3  SGN d 505     -16.612  47.141 174.737  0.00  0.00     0.210 C 
ATOM     56  C4  SGN d 505     -16.829  48.557 175.345  0.00  0.00     0.180 C 
ATOM     57  O3  SGN d 505     -17.767  46.722 174.023  0.00  0.00    -0.218 OA
ATOM     58  C5  SGN d 505     -15.601  48.877 176.134  0.00  0.00     0.179 C 
ATOM     59  O5  SGN d 505     -15.461  47.984 177.197  0.00  0.00    -0.327 OA
BRANCH  54  60
ATOM     60  N   SGN d 505     -16.231  44.768 175.601  0.00  0.00    -0.162 NA
BRANCH  60  61
ATOM     61  S1  SGN d 505     -16.994  43.639 176.578  0.00  0.00     0.227 S 
ATOM     62  O3S SGN d 505     -18.042  44.317 177.253  0.00  0.00    -0.577 OA
ATOM     63  O1S SGN d 505     -17.468  42.570 175.724  0.00  0.00    -0.577 OA
ATOM     64  O2S SGN d 505     -15.974  43.197 177.500  0.00  0.00    -0.577 OA
ENDBRANCH  60  61
ENDBRANCH  54  60
BRANCH  56  65
ATOM     65  O4  SGN d 505     -16.969  49.606 174.410  0.00  0.00    -0.326 OA
BRANCH  65  66
ATOM     66  C1  IDS d 506     -18.194  50.059 173.942  0.00  0.00     0.269 C 
ATOM     67  C2  IDS d 506     -17.955  50.990 172.745  0.00  0.00     0.226 C 
ATOM     68  C3  IDS d 506     -19.209  51.819 172.351  0.00  0.00     0.219 C 
ATOM     69  O3  IDS d 506     -20.038  51.016 171.515  0.00  0.00    -0.218 OA
ATOM     70  C4  IDS d 506     -20.044  52.294 173.560  0.00  0.00     0.223 C 
ATOM     71  O4  IDS d 506     -19.423  53.451 174.069  0.00  0.00    -0.217 OA
ATOM     72  C5  IDS d 506     -20.093  51.213 174.644  0.00  0.00     0.237 C 
ATOM     73  O5  IDS d 506     -18.805  50.801 174.966  0.00  0.00    -0.318 OA
BRANCH  67  74
ATOM     74  O2  IDS d 506     -16.930  51.917 173.047  0.00  0.00    -0.233 OA
BRANCH  74  75
ATOM     75  S   IDS d 506     -15.726  52.388 172.123  0.00  0.00     0.252 S 
ATOM     76  O1S IDS d 506     -15.775  51.528 170.981  0.00  0.00    -0.572 OA
ATOM     77  O2S IDS d 506     -15.957  53.755 171.750  0.00  0.00    -0.572 OA
ATOM     78  O3S IDS d 506     -14.533  52.207 172.921  0.00  0.00    -0.572 OA
ENDBRANCH  74  75
ENDBRANCH  67  74
BRANCH  72  79
ATOM     79  C6  IDS d 506     -20.843  51.561 175.917  0.00  0.00     0.217 C 
ATOM     80  O61 IDS d 506     -20.406  51.204 177.002  0.00  0.00    -0.646 OA
ATOM     81  O62 IDS d 506     -21.892  52.181 175.899  0.00  0.00    -0.646 OA
ENDBRANCH  72  79
ENDBRANCH  65  66
ENDBRANCH  56  65
BRANCH  58  82
ATOM     82  C6  SGN d 505     -15.639  50.243 176.737  0.00  0.00     0.198 C 
BRANCH  82  83
ATOM     83  O6  SGN d 505     -14.696  50.977 176.034  0.00  0.00    -0.235 OA
BRANCH  83  84
ATOM     84  S2  SGN d 505     -14.092  52.318 176.425  0.00  0.00     0.252 S 
ATOM     85  O6S SGN d 505     -15.069  53.340 176.076  0.00  0.00    -0.572 OA
ATOM     86  O4S SGN d 505     -13.871  52.219 177.850  0.00  0.00    -0.572 OA
ATOM     87  O5S SGN d 505     -12.887  52.415 175.639  0.00  0.00    -0.572 OA
ENDBRANCH  83  84
ENDBRANCH  82  83
ENDBRANCH  58  82
ENDBRANCH  52  53
ENDBRANCH   7  52
TORSDOF 27

ENDMDL
MODEL 65
REMARK VINA RESULT:       5.2      3.190      9.735
REMARK  27 active torsions:
REMARK  status: ('A' for Active; 'I' for Inactive)
REMARK    1  A    between atoms: C2_1  and  O2_78 
REMARK    2  A    between atoms: C1_3  and  O4_50 
REMARK    3  A    between atoms: O4_5  and  C4_58 
REMARK    4  A    between atoms: O4_5  and  C1_27 
REMARK    5  A    between atoms: C2_6  and  N_39 
REMARK    6  A    between atoms: S1_9  and  N_39 
REMARK    7  A    between atoms: C6_10  and  C5_52 
REMARK    8  A    between atoms: C2_12  and  N_73 
REMARK    9  A    between atoms: C2_19  and  O2_24 
REMARK   10  A    between atoms: C2_21  and  O2_44 
REMARK   11  A    between atoms: S2_23  and  O6_65 
REMARK   12  A    between atoms: O2_24  and  S_54 
REMARK   13  A    between atoms: C1_28  and  O4_60 
REMARK   14  A    between atoms: C5_29  and  C6_38 
REMARK   15  A    between atoms: C5_30  and  C6_33 
REMARK   16  A    between atoms: S1_34  and  N_73 
REMARK   17  A    between atoms: C5_41  and  C6_46 
REMARK   18  A    between atoms: S_43  and  O2_44 
REMARK   19  A    between atoms: C6_46  and  O6_72 
REMARK   20  A    between atoms: O4_50  and  C4_71 
REMARK   21  A    between atoms: C1_56  and  O4_64 
REMARK   22  A    between atoms: O4_60  and  C4_83 
REMARK   23  A    between atoms: C4_61  and  O4_64 
REMARK   24  A    between atoms: S2_63  and  O6_72 
REMARK   25  A    between atoms: O6_65  and  C6_67 
REMARK   26  A    between atoms: C6_67  and  C5_75 
REMARK   27  A    between atoms: S_76  and  O2_78 
ROOT
ATOM      1  C2  IDS d 504     -13.263  49.868 175.961  0.00  0.00     0.226 C 
ATOM      2  O3  IDS d 504     -11.948  51.211 174.385  0.00  0.00    -0.218 OA
ATOM      3  O5  IDS d 504     -14.408  48.697 174.157  0.00  0.00    -0.318 OA
ATOM      4  C5  IDS d 504     -14.188  49.741 173.236  0.00  0.00     0.234 C 
ATOM      5  C1  IDS d 504     -13.403  48.583 175.170  0.00  0.00     0.269 C 
ATOM      6  C3  IDS d 504     -13.212  51.143 175.034  0.00  0.00     0.216 C 
ATOM      7  C4  IDS d 504     -14.272  51.091 173.944  0.00  0.00     0.189 C 
ENDROOT
BRANCH   5   8
ATOM      8  O4  SGN d 503     -12.150  48.250 174.645  0.00  0.00    -0.326 OA
BRANCH   8   9
ATOM      9  C4  SGN d 503     -11.978  46.891 174.407  0.00  0.00     0.180 C 
ATOM     10  C3  SGN d 503     -12.776  46.112 175.450  0.00  0.00     0.210 C 
ATOM     11  C2  SGN d 503     -12.768  44.646 175.060  0.00  0.00     0.207 C 
ATOM     12  O3  SGN d 503     -12.144  46.281 176.704  0.00  0.00    -0.218 OA
ATOM     13  C1  SGN d 503     -13.247  44.442 173.615  0.00  0.00     0.263 C 
ATOM     14  O5  SGN d 503     -12.444  45.199 172.743  0.00  0.00    -0.327 OA
ATOM     15  C5  SGN d 503     -12.496  46.569 172.994  0.00  0.00     0.179 C 
BRANCH  11  16
ATOM     16  N   SGN d 503     -13.566  43.850 175.976  0.00  0.00    -0.162 NA
BRANCH  16  17
ATOM     17  S1  SGN d 503     -13.038  42.351 176.327  0.00  0.00     0.227 S 
ATOM     18  O1S SGN d 503     -13.393  41.521 175.192  0.00  0.00    -0.577 OA
ATOM     19  O2S SGN d 503     -11.591  42.412 176.531  0.00  0.00    -0.577 OA
ATOM     20  O3S SGN d 503     -13.782  42.008 177.518  0.00  0.00    -0.577 OA
ENDBRANCH  16  17
ENDBRANCH  11  16
BRANCH  13  21
ATOM     21  O4  IDS d 502     -14.602  44.774 173.484  0.00  0.00    -0.326 OA
BRANCH  21  22
ATOM     22  C4  IDS d 502     -15.399  43.776 172.901  0.00  0.00     0.189 C 
ATOM     23  C3  IDS d 502     -16.366  43.205 173.955  0.00  0.00     0.216 C 
ATOM     24  O3  IDS d 502     -17.017  42.071 173.415  0.00  0.00    -0.218 OA
ATOM     25  C2  IDS d 502     -17.436  44.233 174.331  0.00  0.00     0.229 C 
ATOM     26  C1  IDS d 502     -18.076  44.866 173.099  0.00  0.00     0.301 C 
ATOM     27  O1  IDS d 502     -18.918  43.910 172.511  0.00  0.00    -0.187 OA
ATOM     28  O5  IDS d 502     -17.101  45.348 172.209  0.00  0.00    -0.316 OA
ATOM     29  C5  IDS d 502     -16.191  44.373 171.740  0.00  0.00     0.234 C 
BRANCH  25  30
ATOM     30  O2  IDS d 502     -16.800  45.248 175.061  0.00  0.00    -0.232 OA
BRANCH  30  31
ATOM     31  S   IDS d 502     -17.103  45.708 176.526  0.00  0.00     0.252 S 
ATOM     32  O3S IDS d 502     -18.109  44.792 176.998  0.00  0.00    -0.572 OA
ATOM     33  O2S IDS d 502     -17.561  47.074 176.423  0.00  0.00    -0.572 OA
ATOM     34  O1S IDS d 502     -15.878  45.596 177.269  0.00  0.00    -0.572 OA
ENDBRANCH  30  31
ENDBRANCH  25  30
BRANCH  29  35
ATOM     35  C6  IDS d 502     -15.329  44.936 170.619  0.00  0.00     0.216 C 
ATOM     36  O61 IDS d 502     -15.596  45.987 170.090  0.00  0.00    -0.646 OA
ATOM     37  O62 IDS d 502     -14.342  44.342 170.229  0.00  0.00    -0.646 OA
ENDBRANCH  29  35
ENDBRANCH  21  22
ENDBRANCH  13  21
BRANCH  15  38
ATOM     38  C6  SGN d 503     -11.694  47.188 171.882  0.00  0.00     0.198 C 
BRANCH  38  39
ATOM     39  O6  SGN d 503     -12.597  47.563 170.865  0.00  0.00    -0.235 OA
BRANCH  39  40
ATOM     40  S2  SGN d 503     -12.213  47.935 169.408  0.00  0.00     0.252 S 
ATOM     41  O4S SGN d 503     -12.479  49.321 169.216  0.00  0.00    -0.572 OA
ATOM     42  O5S SGN d 503     -10.796  47.625 169.247  0.00  0.00    -0.572 OA
ATOM     43  O6S SGN d 503     -13.090  47.159 168.621  0.00  0.00    -0.572 OA
ENDBRANCH  39  40
ENDBRANCH  38  39
ENDBRANCH  15  38
ENDBRANCH   8   9
ENDBRANCH   5   8
BRANCH   1  44
ATOM     44  O2  IDS d 504     -14.358  49.956 176.870  0.00  0.00    -0.233 OA
BRANCH  44  45
ATOM     45  S   IDS d 504     -14.368  49.508 178.343  0.00  0.00     0.252 S 
ATOM     46  O3S IDS d 504     -14.934  50.611 179.024  0.00  0.00    -0.572 OA
ATOM     47  O2S IDS d 504     -13.018  49.200 178.712  0.00  0.00    -0.572 OA
ATOM     48  O1S IDS d 504     -15.201  48.363 178.406  0.00  0.00    -0.572 OA
ENDBRANCH  44  45
ENDBRANCH   1  44
BRANCH   4  49
ATOM     49  C6  IDS d 504     -15.111  49.585 172.016  0.00  0.00     0.216 C 
ATOM     50  O62 IDS d 504     -15.876  48.624 171.915  0.00  0.00    -0.646 OA
ATOM     51  O61 IDS d 504     -15.097  50.405 171.107  0.00  0.00    -0.646 OA
ENDBRANCH   4  49
BRANCH   7  52
ATOM     52  O4  IDS d 504     -15.555  51.257 174.530  0.00  0.00    -0.326 OA
BRANCH  52  53
ATOM     53  C1  SGN d 505     -16.251  52.380 174.060  0.00  0.00     0.263 C 
ATOM     54  C2  SGN d 505     -17.006  53.074 175.176  0.00  0.00     0.207 C 
ATOM     55  C3  SGN d 505     -18.140  52.177 175.709  0.00  0.00     0.210 C 
ATOM     56  C4  SGN d 505     -19.036  51.855 174.478  0.00  0.00     0.180 C 
ATOM     57  O3  SGN d 505     -18.874  52.908 176.683  0.00  0.00    -0.218 OA
ATOM     58  C5  SGN d 505     -18.163  51.160 173.485  0.00  0.00     0.179 C 
ATOM     59  O5  SGN d 505     -17.147  52.011 173.050  0.00  0.00    -0.327 OA
BRANCH  54  60
ATOM     60  N   SGN d 505     -16.043  53.552 176.196  0.00  0.00    -0.162 NA
BRANCH  60  61
ATOM     61  S1  SGN d 505     -15.273  55.012 175.909  0.00  0.00     0.227 S 
ATOM     62  O3S SGN d 505     -16.138  55.782 175.088  0.00  0.00    -0.577 OA
ATOM     63  O1S SGN d 505     -15.013  55.630 177.192  0.00  0.00    -0.577 OA
ATOM     64  O2S SGN d 505     -14.059  54.661 175.210  0.00  0.00    -0.577 OA
ENDBRANCH  60  61
ENDBRANCH  54  60
BRANCH  56  65
ATOM     65  O4  SGN d 505     -20.116  50.978 174.722  0.00  0.00    -0.326 OA
BRANCH  65  66
ATOM     66  C1  IDS d 506     -21.446  51.364 174.660  0.00  0.00     0.269 C 
ATOM     67  C2  IDS d 506     -22.285  50.394 175.505  0.00  0.00     0.226 C 
ATOM     68  C3  IDS d 506     -23.812  50.515 175.246  0.00  0.00     0.219 C 
ATOM     69  O3  IDS d 506     -24.321  51.587 176.035  0.00  0.00    -0.218 OA
ATOM     70  C4  IDS d 506     -24.172  50.779 173.769  0.00  0.00     0.223 C 
ATOM     71  O4  IDS d 506     -24.143  49.538 173.103  0.00  0.00    -0.217 OA
ATOM     72  C5  IDS d 506     -23.161  51.734 173.126  0.00  0.00     0.237 C 
ATOM     73  O5  IDS d 506     -21.868  51.265 173.324  0.00  0.00    -0.318 OA
BRANCH  67  74
ATOM     74  O2  IDS d 506     -21.924  49.058 175.213  0.00  0.00    -0.233 OA
BRANCH  74  75
ATOM     75  S   IDS d 506     -21.469  47.919 176.223  0.00  0.00     0.252 S 
ATOM     76  O1S IDS d 506     -22.680  47.443 176.817  0.00  0.00    -0.572 OA
ATOM     77  O2S IDS d 506     -20.824  46.883 175.466  0.00  0.00    -0.572 OA
ATOM     78  O3S IDS d 506     -20.587  48.568 177.168  0.00  0.00    -0.572 OA
ENDBRANCH  74  75
ENDBRANCH  67  74
BRANCH  72  79
ATOM     79  C6  IDS d 506     -23.364  52.048 171.655  0.00  0.00     0.217 C 
ATOM     80  O61 IDS d 506     -24.336  52.698 171.297  0.00  0.00    -0.646 OA
ATOM     81  O62 IDS d 506     -22.589  51.657 170.799  0.00  0.00    -0.646 OA
ENDBRANCH  72  79
ENDBRANCH  65  66
ENDBRANCH  56  65
BRANCH  58  82
ATOM     82  C6  SGN d 505     -18.905  50.733 172.259  0.00  0.00     0.198 C 
BRANCH  82  83
ATOM     83  O6  SGN d 505     -18.844  49.348 172.262  0.00  0.00    -0.235 OA
BRANCH  83  84
ATOM     84  S2  SGN d 505     -19.624  48.390 171.374  0.00  0.00     0.252 S 
ATOM     85  O6S SGN d 505     -20.309  47.455 172.256  0.00  0.00    -0.572 OA
ATOM     86  O4S SGN d 505     -20.538  49.233 170.637  0.00  0.00    -0.572 OA
ATOM     87  O5S SGN d 505     -18.619  47.748 170.563  0.00  0.00    -0.572 OA
ENDBRANCH  83  84
ENDBRANCH  82  83
ENDBRANCH  58  82
ENDBRANCH  52  53
ENDBRANCH   7  52
TORSDOF 27

ENDMDL
MODEL 66
REMARK VINA RESULT:       5.2      2.853     11.026
REMARK  27 active torsions:
REMARK  status: ('A' for Active; 'I' for Inactive)
REMARK    1  A    between atoms: C2_1  and  O2_78 
REMARK    2  A    between atoms: C1_3  and  O4_50 
REMARK    3  A    between atoms: O4_5  and  C4_58 
REMARK    4  A    between atoms: O4_5  and  C1_27 
REMARK    5  A    between atoms: C2_6  and  N_39 
REMARK    6  A    between atoms: S1_9  and  N_39 
REMARK    7  A    between atoms: C6_10  and  C5_52 
REMARK    8  A    between atoms: C2_12  and  N_73 
REMARK    9  A    between atoms: C2_19  and  O2_24 
REMARK   10  A    between atoms: C2_21  and  O2_44 
REMARK   11  A    between atoms: S2_23  and  O6_65 
REMARK   12  A    between atoms: O2_24  and  S_54 
REMARK   13  A    between atoms: C1_28  and  O4_60 
REMARK   14  A    between atoms: C5_29  and  C6_38 
REMARK   15  A    between atoms: C5_30  and  C6_33 
REMARK   16  A    between atoms: S1_34  and  N_73 
REMARK   17  A    between atoms: C5_41  and  C6_46 
REMARK   18  A    between atoms: S_43  and  O2_44 
REMARK   19  A    between atoms: C6_46  and  O6_72 
REMARK   20  A    between atoms: O4_50  and  C4_71 
REMARK   21  A    between atoms: C1_56  and  O4_64 
REMARK   22  A    between atoms: O4_60  and  C4_83 
REMARK   23  A    between atoms: C4_61  and  O4_64 
REMARK   24  A    between atoms: S2_63  and  O6_72 
REMARK   25  A    between atoms: O6_65  and  C6_67 
REMARK   26  A    between atoms: C6_67  and  C5_75 
REMARK   27  A    between atoms: S_76  and  O2_78 
ROOT
ATOM      1  C2  IDS d 504     -10.702  47.317 170.741  0.00  0.00     0.226 C 
ATOM      2  O3  IDS d 504     -10.306  45.066 171.629  0.00  0.00    -0.218 OA
ATOM      3  O5  IDS d 504     -10.082  48.365 172.851  0.00  0.00    -0.318 OA
ATOM      4  C5  IDS d 504     -10.386  47.211 173.602  0.00  0.00     0.234 C 
ATOM      5  C1  IDS d 504      -9.657  48.100 171.510  0.00  0.00     0.269 C 
ATOM      6  C3  IDS d 504     -11.277  46.104 171.568  0.00  0.00     0.216 C 
ATOM      7  C4  IDS d 504     -11.598  46.501 173.001  0.00  0.00     0.189 C 
ENDROOT
BRANCH   5   8
ATOM      8  O4  SGN d 503      -8.452  47.392 171.460  0.00  0.00    -0.326 OA
BRANCH   8   9
ATOM      9  C4  SGN d 503      -7.349  48.173 171.135  0.00  0.00     0.180 C 
ATOM     10  C3  SGN d 503      -7.756  49.643 171.214  0.00  0.00     0.210 C 
ATOM     11  C2  SGN d 503      -6.507  50.493 171.077  0.00  0.00     0.207 C 
ATOM     12  O3  SGN d 503      -8.642  49.912 170.143  0.00  0.00    -0.218 OA
ATOM     13  C1  SGN d 503      -5.428  50.080 172.089  0.00  0.00     0.263 C 
ATOM     14  O5  SGN d 503      -5.129  48.716 171.927  0.00  0.00    -0.327 OA
ATOM     15  C5  SGN d 503      -6.224  47.881 172.143  0.00  0.00     0.179 C 
BRANCH  11  16
ATOM     16  N   SGN d 503      -6.811  51.907 171.207  0.00  0.00    -0.162 NA
BRANCH  16  17
ATOM     17  S1  SGN d 503      -6.058  52.936 170.196  0.00  0.00     0.227 S 
ATOM     18  O1S SGN d 503      -5.920  52.234 168.934  0.00  0.00    -0.577 OA
ATOM     19  O2S SGN d 503      -6.882  54.137 170.069  0.00  0.00    -0.577 OA
ATOM     20  O3S SGN d 503      -4.786  53.165 170.844  0.00  0.00    -0.577 OA
ENDBRANCH  16  17
ENDBRANCH  11  16
BRANCH  13  21
ATOM     21  O4  IDS d 502      -5.836  50.364 173.399  0.00  0.00    -0.326 OA
BRANCH  21  22
ATOM     22  C4  IDS d 502      -4.935  51.148 174.139  0.00  0.00     0.189 C 
ATOM     23  C3  IDS d 502      -5.481  52.584 174.262  0.00  0.00     0.216 C 
ATOM     24  O3  IDS d 502      -4.481  53.408 174.828  0.00  0.00    -0.218 OA
ATOM     25  C2  IDS d 502      -6.708  52.628 175.177  0.00  0.00     0.229 C 
ATOM     26  C1  IDS d 502      -6.468  51.880 176.485  0.00  0.00     0.301 C 
ATOM     27  O1  IDS d 502      -5.605  52.657 177.274  0.00  0.00    -0.187 OA
ATOM     28  O5  IDS d 502      -5.970  50.587 176.252  0.00  0.00    -0.316 OA
ATOM     29  C5  IDS d 502      -4.756  50.541 175.529  0.00  0.00     0.234 C 
BRANCH  25  30
ATOM     30  O2  IDS d 502      -7.757  51.991 174.499  0.00  0.00    -0.232 OA
BRANCH  30  31
ATOM     31  S   IDS d 502      -9.208  52.524 174.263  0.00  0.00     0.252 S 
ATOM     32  O3S IDS d 502      -9.042  53.924 173.970  0.00  0.00    -0.572 OA
ATOM     33  O2S IDS d 502      -9.927  52.267 175.489  0.00  0.00    -0.572 OA
ATOM     34  O1S IDS d 502      -9.753  51.800 173.148  0.00  0.00    -0.572 OA
ENDBRANCH  30  31
ENDBRANCH  25  30
BRANCH  29  35
ATOM     35  C6  IDS d 502      -4.184  49.130 175.525  0.00  0.00     0.216 C 
ATOM     36  O61 IDS d 502      -4.521  48.316 176.349  0.00  0.00    -0.646 OA
ATOM     37  O62 IDS d 502      -3.375  48.785 174.686  0.00  0.00    -0.646 OA
ENDBRANCH  29  35
ENDBRANCH  21  22
ENDBRANCH  13  21
BRANCH  15  38
ATOM     38  C6  SGN d 503      -5.660  46.488 172.059  0.00  0.00     0.198 C 
BRANCH  38  39
ATOM     39  O6  SGN d 503      -5.453  46.195 170.694  0.00  0.00    -0.235 OA
BRANCH  39  40
ATOM     40  S2  SGN d 503      -5.812  44.858 169.993  0.00  0.00     0.252 S 
ATOM     41  O4S SGN d 503      -7.082  44.430 170.472  0.00  0.00    -0.572 OA
ATOM     42  O5S SGN d 503      -5.830  45.120 168.557  0.00  0.00    -0.572 OA
ATOM     43  O6S SGN d 503      -4.805  43.970 170.427  0.00  0.00    -0.572 OA
ENDBRANCH  39  40
ENDBRANCH  38  39
ENDBRANCH  15  38
ENDBRANCH   8   9
ENDBRANCH   5   8
BRANCH   1  44
ATOM     44  O2  IDS d 504     -11.751  48.211 170.373  0.00  0.00    -0.233 OA
BRANCH  44  45
ATOM     45  S   IDS d 504     -12.527  48.222 169.044  0.00  0.00     0.252 S 
ATOM     46  O3S IDS d 504     -13.424  49.307 169.189  0.00  0.00    -0.572 OA
ATOM     47  O2S IDS d 504     -13.151  46.940 168.896  0.00  0.00    -0.572 OA
ATOM     48  O1S IDS d 504     -11.571  48.458 168.024  0.00  0.00    -0.572 OA
ENDBRANCH  44  45
ENDBRANCH   1  44
BRANCH   4  49
ATOM     49  C6  IDS d 504     -10.507  47.558 175.095  0.00  0.00     0.216 C 
ATOM     50  O62 IDS d 504     -10.794  46.696 175.928  0.00  0.00    -0.646 OA
ATOM     51  O61 IDS d 504     -10.339  48.705 175.490  0.00  0.00    -0.646 OA
ENDBRANCH   4  49
BRANCH   7  52
ATOM     52  O4  IDS d 504     -12.724  47.365 173.008  0.00  0.00    -0.326 OA
BRANCH  52  53
ATOM     53  C1  SGN d 505     -13.845  46.831 173.659  0.00  0.00     0.263 C 
ATOM     54  C2  SGN d 505     -15.116  47.073 172.869  0.00  0.00     0.207 C 
ATOM     55  C3  SGN d 505     -15.448  48.577 172.815  0.00  0.00     0.210 C 
ATOM     56  C4  SGN d 505     -15.556  49.038 174.297  0.00  0.00     0.180 C 
ATOM     57  O3  SGN d 505     -16.693  48.740 172.149  0.00  0.00    -0.218 OA
ATOM     58  C5  SGN d 505     -14.232  48.757 174.930  0.00  0.00     0.179 C 
ATOM     59  O5  SGN d 505     -13.978  47.386 174.937  0.00  0.00    -0.327 OA
BRANCH  54  60
ATOM     60  N   SGN d 505     -15.012  46.398 171.555  0.00  0.00    -0.162 NA
BRANCH  60  61
ATOM     61  S1  SGN d 505     -16.175  45.252 171.178  0.00  0.00     0.227 S 
ATOM     62  O3S SGN d 505     -16.880  45.736 170.045  0.00  0.00    -0.577 OA
ATOM     63  O1S SGN d 505     -15.492  44.001 170.927  0.00  0.00    -0.577 OA
ATOM     64  O2S SGN d 505     -17.028  45.191 172.342  0.00  0.00    -0.577 OA
ENDBRANCH  60  61
ENDBRANCH  54  60
BRANCH  56  65
ATOM     65  O4  SGN d 505     -15.791  50.417 174.491  0.00  0.00    -0.326 OA
BRANCH  65  66
ATOM     66  C1  IDS d 506     -17.058  50.975 174.571  0.00  0.00     0.269 C 
ATOM     67  C2  IDS d 506     -16.928  52.442 175.006  0.00  0.00     0.226 C 
ATOM     68  C3  IDS d 506     -18.275  53.072 175.455  0.00  0.00     0.219 C 
ATOM     69  O3  IDS d 506     -18.977  53.515 174.296  0.00  0.00    -0.218 OA
ATOM     70  C4  IDS d 506     -19.185  52.101 176.238  0.00  0.00     0.223 C 
ATOM     71  O4  IDS d 506     -18.731  52.086 177.571  0.00  0.00    -0.217 OA
ATOM     72  C5  IDS d 506     -19.105  50.689 175.649  0.00  0.00     0.237 C 
ATOM     73  O5  IDS d 506     -17.779  50.283 175.559  0.00  0.00    -0.318 OA
BRANCH  67  74
ATOM     74  O2  IDS d 506     -16.041  52.547 176.102  0.00  0.00    -0.233 OA
BRANCH  74  75
ATOM     75  S   IDS d 506     -14.708  53.406 176.211  0.00  0.00     0.252 S 
ATOM     76  O1S IDS d 506     -14.254  53.559 174.863  0.00  0.00    -0.572 OA
ATOM     77  O2S IDS d 506     -15.042  54.677 176.790  0.00  0.00    -0.572 OA
ATOM     78  O3S IDS d 506     -13.809  52.623 177.030  0.00  0.00    -0.572 OA
ENDBRANCH  74  75
ENDBRANCH  67  74
BRANCH  72  79
ATOM     79  C6  IDS d 506     -19.914  49.614 176.350  0.00  0.00     0.217 C 
ATOM     80  O61 IDS d 506     -19.355  48.625 176.803  0.00  0.00    -0.646 OA
ATOM     81  O62 IDS d 506     -21.125  49.690 176.469  0.00  0.00    -0.646 OA
ENDBRANCH  72  79
ENDBRANCH  65  66
ENDBRANCH  56  65
BRANCH  58  82
ATOM     82  C6  SGN d 505     -14.164  49.204 176.354  0.00  0.00     0.198 C 
BRANCH  82  83
ATOM     83  O6  SGN d 505     -13.639  48.124 177.048  0.00  0.00    -0.235 OA
BRANCH  83  84
ATOM     84  S2  SGN d 505     -14.329  47.296 178.123  0.00  0.00     0.252 S 
ATOM     85  O6S SGN d 505     -13.872  45.923 177.958  0.00  0.00    -0.572 OA
ATOM     86  O4S SGN d 505     -13.897  47.882 179.372  0.00  0.00    -0.572 OA
ATOM     87  O5S SGN d 505     -15.736  47.446 177.848  0.00  0.00    -0.572 OA
ENDBRANCH  83  84
ENDBRANCH  82  83
ENDBRANCH  58  82
ENDBRANCH  52  53
ENDBRANCH   7  52
TORSDOF 27

ENDMDL
MODEL 67
REMARK VINA RESULT:       5.2      3.473     10.140
REMARK  27 active torsions:
REMARK  status: ('A' for Active; 'I' for Inactive)
REMARK    1  A    between atoms: C2_1  and  O2_78 
REMARK    2  A    between atoms: C1_3  and  O4_50 
REMARK    3  A    between atoms: O4_5  and  C4_58 
REMARK    4  A    between atoms: O4_5  and  C1_27 
REMARK    5  A    between atoms: C2_6  and  N_39 
REMARK    6  A    between atoms: S1_9  and  N_39 
REMARK    7  A    between atoms: C6_10  and  C5_52 
REMARK    8  A    between atoms: C2_12  and  N_73 
REMARK    9  A    between atoms: C2_19  and  O2_24 
REMARK   10  A    between atoms: C2_21  and  O2_44 
REMARK   11  A    between atoms: S2_23  and  O6_65 
REMARK   12  A    between atoms: O2_24  and  S_54 
REMARK   13  A    between atoms: C1_28  and  O4_60 
REMARK   14  A    between atoms: C5_29  and  C6_38 
REMARK   15  A    between atoms: C5_30  and  C6_33 
REMARK   16  A    between atoms: S1_34  and  N_73 
REMARK   17  A    between atoms: C5_41  and  C6_46 
REMARK   18  A    between atoms: S_43  and  O2_44 
REMARK   19  A    between atoms: C6_46  and  O6_72 
REMARK   20  A    between atoms: O4_50  and  C4_71 
REMARK   21  A    between atoms: C1_56  and  O4_64 
REMARK   22  A    between atoms: O4_60  and  C4_83 
REMARK   23  A    between atoms: C4_61  and  O4_64 
REMARK   24  A    between atoms: S2_63  and  O6_72 
REMARK   25  A    between atoms: O6_65  and  C6_67 
REMARK   26  A    between atoms: C6_67  and  C5_75 
REMARK   27  A    between atoms: S_76  and  O2_78 
ROOT
ATOM      1  C2  IDS d 504     -12.859  46.603 170.795  0.00  0.00     0.226 C 
ATOM      2  O3  IDS d 504     -13.508  45.114 172.633  0.00  0.00    -0.218 OA
ATOM      3  O5  IDS d 504     -11.324  47.850 172.218  0.00  0.00    -0.318 OA
ATOM      4  C5  IDS d 504     -12.006  47.493 173.399  0.00  0.00     0.234 C 
ATOM      5  C1  IDS d 504     -11.417  46.881 171.168  0.00  0.00     0.269 C 
ATOM      6  C3  IDS d 504     -13.777  46.387 172.059  0.00  0.00     0.216 C 
ATOM      7  C4  IDS d 504     -13.509  47.428 173.135  0.00  0.00     0.189 C 
ENDROOT
BRANCH   5   8
ATOM      8  O4  SGN d 503     -10.807  45.668 171.504  0.00  0.00    -0.326 OA
BRANCH   8   9
ATOM      9  C4  SGN d 503      -9.465  45.591 171.149  0.00  0.00     0.180 C 
ATOM     10  C3  SGN d 503      -9.031  46.947 170.598  0.00  0.00     0.210 C 
ATOM     11  C2  SGN d 503      -7.524  46.931 170.419  0.00  0.00     0.207 C 
ATOM     12  O3  SGN d 503      -9.663  47.136 169.346  0.00  0.00    -0.218 OA
ATOM     13  C1  SGN d 503      -6.806  46.513 171.710  0.00  0.00     0.263 C 
ATOM     14  O5  SGN d 503      -7.278  45.255 172.124  0.00  0.00    -0.327 OA
ATOM     15  C5  SGN d 503      -8.643  45.241 172.402  0.00  0.00     0.179 C 
BRANCH  11  16
ATOM     16  N   SGN d 503      -7.032  48.216 169.956  0.00  0.00    -0.162 NA
BRANCH  16  17
ATOM     17  S1  SGN d 503      -6.306  48.265 168.500  0.00  0.00     0.227 S 
ATOM     18  O1S SGN d 503      -6.803  47.118 167.762  0.00  0.00    -0.577 OA
ATOM     19  O2S SGN d 503      -6.661  49.528 167.855  0.00  0.00    -0.577 OA
ATOM     20  O3S SGN d 503      -4.903  48.148 168.825  0.00  0.00    -0.577 OA
ENDBRANCH  16  17
ENDBRANCH  11  16
BRANCH  13  21
ATOM     21  O4  IDS d 502      -6.973  47.479 172.711  0.00  0.00    -0.326 OA
BRANCH  21  22
ATOM     22  C4  IDS d 502      -5.785  47.885 173.341  0.00  0.00     0.189 C 
ATOM     23  C3  IDS d 502      -5.515  49.369 173.029  0.00  0.00     0.216 C 
ATOM     24  O3  IDS d 502      -4.224  49.709 173.496  0.00  0.00    -0.218 OA
ATOM     25  C2  IDS d 502      -6.530  50.271 173.737  0.00  0.00     0.229 C 
ATOM     26  C1  IDS d 502      -6.685  49.907 175.210  0.00  0.00     0.301 C 
ATOM     27  O1  IDS d 502      -5.532  50.339 175.884  0.00  0.00    -0.187 OA
ATOM     28  O5  IDS d 502      -6.924  48.532 175.374  0.00  0.00    -0.316 OA
ATOM     29  C5  IDS d 502      -5.918  47.688 174.850  0.00  0.00     0.234 C 
BRANCH  25  30
ATOM     30  O2  IDS d 502      -7.769  50.078 173.108  0.00  0.00    -0.232 OA
BRANCH  30  31
ATOM     31  S   IDS d 502      -8.506  51.047 172.126  0.00  0.00     0.252 S 
ATOM     32  O3S IDS d 502      -7.452  51.713 171.407  0.00  0.00    -0.572 OA
ATOM     33  O2S IDS d 502      -9.292  51.929 172.958  0.00  0.00    -0.572 OA
ATOM     34  O1S IDS d 502      -9.322  50.239 171.264  0.00  0.00    -0.572 OA
ENDBRANCH  30  31
ENDBRANCH  25  30
BRANCH  29  35
ATOM     35  C6  IDS d 502      -6.151  46.245 175.274  0.00  0.00     0.216 C 
ATOM     36  O61 IDS d 502      -5.246  45.447 175.306  0.00  0.00    -0.646 OA
ATOM     37  O62 IDS d 502      -7.258  45.858 175.597  0.00  0.00    -0.646 OA
ENDBRANCH  29  35
ENDBRANCH  21  22
ENDBRANCH  13  21
BRANCH  15  38
ATOM     38  C6  SGN d 503      -8.904  43.864 172.952  0.00  0.00     0.198 C 
BRANCH  38  39
ATOM     39  O6  SGN d 503      -9.822  43.999 174.015  0.00  0.00    -0.235 OA
BRANCH  39  40
ATOM     40  S2  SGN d 503      -9.797  43.188 175.337  0.00  0.00     0.252 S 
ATOM     41  O4S SGN d 503      -9.956  44.096 176.422  0.00  0.00    -0.572 OA
ATOM     42  O5S SGN d 503     -10.890  42.223 175.268  0.00  0.00    -0.572 OA
ATOM     43  O6S SGN d 503      -8.503  42.626 175.362  0.00  0.00    -0.572 OA
ENDBRANCH  39  40
ENDBRANCH  38  39
ENDBRANCH  15  38
ENDBRANCH   8   9
ENDBRANCH   5   8
BRANCH   1  44
ATOM     44  O2  IDS d 504     -13.338  47.694 170.011  0.00  0.00    -0.233 OA
BRANCH  44  45
ATOM     45  S   IDS d 504     -13.622  47.685 168.498  0.00  0.00     0.252 S 
ATOM     46  O3S IDS d 504     -12.456  48.256 167.936  0.00  0.00    -0.572 OA
ATOM     47  O2S IDS d 504     -14.826  48.432 168.279  0.00  0.00    -0.572 OA
ATOM     48  O1S IDS d 504     -13.776  46.325 168.129  0.00  0.00    -0.572 OA
ENDBRANCH  44  45
ENDBRANCH   1  44
BRANCH   4  49
ATOM     49  C6  IDS d 504     -11.586  48.409 174.560  0.00  0.00     0.216 C 
ATOM     50  O62 IDS d 504     -10.938  49.438 174.358  0.00  0.00    -0.646 OA
ATOM     51  O61 IDS d 504     -11.871  48.129 175.718  0.00  0.00    -0.646 OA
ENDBRANCH   4  49
BRANCH   7  52
ATOM     52  O4  IDS d 504     -13.983  48.692 172.693  0.00  0.00    -0.326 OA
BRANCH  52  53
ATOM     53  C1  SGN d 505     -15.173  49.100 173.312  0.00  0.00     0.263 C 
ATOM     54  C2  SGN d 505     -16.034  49.924 172.375  0.00  0.00     0.207 C 
ATOM     55  C3  SGN d 505     -15.353  51.266 172.046  0.00  0.00     0.210 C 
ATOM     56  C4  SGN d 505     -15.109  51.962 173.417  0.00  0.00     0.180 C 
ATOM     57  O3  SGN d 505     -16.239  52.038 171.246  0.00  0.00    -0.218 OA
ATOM     58  C5  SGN d 505     -14.234  51.046 174.211  0.00  0.00     0.179 C 
ATOM     59  O5  SGN d 505     -14.894  49.844 174.464  0.00  0.00    -0.327 OA
BRANCH  54  60
ATOM     60  N   SGN d 505     -16.410  49.099 171.204  0.00  0.00    -0.162 NA
BRANCH  60  61
ATOM     61  S1  SGN d 505     -17.923  48.377 171.219  0.00  0.00     0.227 S 
ATOM     62  O3S SGN d 505     -18.147  47.860 169.916  0.00  0.00    -0.577 OA
ATOM     63  O1S SGN d 505     -17.907  47.351 172.241  0.00  0.00    -0.577 OA
ATOM     64  O2S SGN d 505     -18.843  49.447 171.526  0.00  0.00    -0.577 OA
ENDBRANCH  60  61
ENDBRANCH  54  60
BRANCH  56  65
ATOM     65  O4  SGN d 505     -14.423  53.195 173.361  0.00  0.00    -0.326 OA
BRANCH  65  66
ATOM     66  C1  IDS d 506     -15.054  54.427 173.447  0.00  0.00     0.269 C 
ATOM     67  C2  IDS d 506     -14.280  55.442 172.593  0.00  0.00     0.226 C 
ATOM     68  C3  IDS d 506     -14.684  56.916 172.873  0.00  0.00     0.219 C 
ATOM     69  O3  IDS d 506     -15.850  57.219 172.112  0.00  0.00    -0.218 OA
ATOM     70  C4  IDS d 506     -14.979  57.207 174.360  0.00  0.00     0.223 C 
ATOM     71  O4  IDS d 506     -13.741  57.410 175.001  0.00  0.00    -0.217 OA
ATOM     72  C5  IDS d 506     -15.711  56.027 175.009  0.00  0.00     0.237 C 
ATOM     73  O5  IDS d 506     -15.008  54.849 174.786  0.00  0.00    -0.318 OA
BRANCH  67  74
ATOM     74  O2  IDS d 506     -12.894  55.340 172.854  0.00  0.00    -0.233 OA
BRANCH  74  75
ATOM     75  S   IDS d 506     -11.690  55.989 172.045  0.00  0.00     0.252 S 
ATOM     76  O1S IDS d 506     -10.559  55.162 172.335  0.00  0.00    -0.572 OA
ATOM     77  O2S IDS d 506     -12.016  55.945 170.648  0.00  0.00    -0.572 OA
ATOM     78  O3S IDS d 506     -11.558  57.335 172.559  0.00  0.00    -0.572 OA
ENDBRANCH  74  75
ENDBRANCH  67  74
BRANCH  72  79
ATOM     79  C6  IDS d 506     -16.025  56.154 176.488  0.00  0.00     0.217 C 
ATOM     80  O61 IDS d 506     -15.195  55.816 177.321  0.00  0.00    -0.646 OA
ATOM     81  O62 IDS d 506     -17.097  56.574 176.887  0.00  0.00    -0.646 OA
ENDBRANCH  72  79
ENDBRANCH  65  66
ENDBRANCH  56  65
BRANCH  58  82
ATOM     82  C6  SGN d 505     -13.863  51.610 175.544  0.00  0.00     0.198 C 
BRANCH  82  83
ATOM     83  O6  SGN d 505     -15.066  51.782 176.213  0.00  0.00    -0.235 OA
BRANCH  83  84
ATOM     84  S2  SGN d 505     -15.303  51.712 177.714  0.00  0.00     0.252 S 
ATOM     85  O6S SGN d 505     -14.089  52.196 178.358  0.00  0.00    -0.572 OA
ATOM     86  O4S SGN d 505     -16.440  52.572 177.947  0.00  0.00    -0.572 OA
ATOM     87  O5S SGN d 505     -15.547  50.315 177.977  0.00  0.00    -0.572 OA
ENDBRANCH  83  84
ENDBRANCH  82  83
ENDBRANCH  58  82
ENDBRANCH  52  53
ENDBRANCH   7  52
TORSDOF 27

ENDMDL
MODEL 68
REMARK VINA RESULT:       5.2      2.986      9.333
REMARK  27 active torsions:
REMARK  status: ('A' for Active; 'I' for Inactive)
REMARK    1  A    between atoms: C2_1  and  O2_78 
REMARK    2  A    between atoms: C1_3  and  O4_50 
REMARK    3  A    between atoms: O4_5  and  C4_58 
REMARK    4  A    between atoms: O4_5  and  C1_27 
REMARK    5  A    between atoms: C2_6  and  N_39 
REMARK    6  A    between atoms: S1_9  and  N_39 
REMARK    7  A    between atoms: C6_10  and  C5_52 
REMARK    8  A    between atoms: C2_12  and  N_73 
REMARK    9  A    between atoms: C2_19  and  O2_24 
REMARK   10  A    between atoms: C2_21  and  O2_44 
REMARK   11  A    between atoms: S2_23  and  O6_65 
REMARK   12  A    between atoms: O2_24  and  S_54 
REMARK   13  A    between atoms: C1_28  and  O4_60 
REMARK   14  A    between atoms: C5_29  and  C6_38 
REMARK   15  A    between atoms: C5_30  and  C6_33 
REMARK   16  A    between atoms: S1_34  and  N_73 
REMARK   17  A    between atoms: C5_41  and  C6_46 
REMARK   18  A    between atoms: S_43  and  O2_44 
REMARK   19  A    between atoms: C6_46  and  O6_72 
REMARK   20  A    between atoms: O4_50  and  C4_71 
REMARK   21  A    between atoms: C1_56  and  O4_64 
REMARK   22  A    between atoms: O4_60  and  C4_83 
REMARK   23  A    between atoms: C4_61  and  O4_64 
REMARK   24  A    between atoms: S2_63  and  O6_72 
REMARK   25  A    between atoms: O6_65  and  C6_67 
REMARK   26  A    between atoms: C6_67  and  C5_75 
REMARK   27  A    between atoms: S_76  and  O2_78 
ROOT
ATOM      1  C2  IDS d 504     -14.384  45.257 171.233  0.00  0.00     0.226 C 
ATOM      2  O3  IDS d 504     -16.147  43.824 172.155  0.00  0.00    -0.218 OA
ATOM      3  O5  IDS d 504     -13.297  45.482 173.402  0.00  0.00    -0.318 OA
ATOM      4  C5  IDS d 504     -14.484  45.204 174.112  0.00  0.00     0.234 C 
ATOM      5  C1  IDS d 504     -13.220  44.857 172.117  0.00  0.00     0.269 C 
ATOM      6  C3  IDS d 504     -15.766  45.184 171.989  0.00  0.00     0.216 C 
ATOM      7  C4  IDS d 504     -15.684  45.799 173.377  0.00  0.00     0.189 C 
ENDROOT
BRANCH   5   8
ATOM      8  O4  SGN d 503     -13.191  43.461 172.200  0.00  0.00    -0.326 OA
BRANCH   8   9
ATOM      9  C4  SGN d 503     -11.919  42.913 172.084  0.00  0.00     0.180 C 
ATOM     10  C3  SGN d 503     -11.202  43.594 170.920  0.00  0.00     0.210 C 
ATOM     11  C2  SGN d 503      -9.749  43.157 170.932  0.00  0.00     0.207 C 
ATOM     12  O3  SGN d 503     -11.821  43.177 169.718  0.00  0.00    -0.218 OA
ATOM     13  C1  SGN d 503      -9.098  43.394 172.302  0.00  0.00     0.263 C 
ATOM     14  O5  SGN d 503      -9.833  42.723 173.295  0.00  0.00    -0.327 OA
ATOM     15  C5  SGN d 503     -11.153  43.160 173.395  0.00  0.00     0.179 C 
BRANCH  11  16
ATOM     16  N   SGN d 503      -8.989  43.818 169.886  0.00  0.00    -0.162 NA
BRANCH  16  17
ATOM     17  S1  SGN d 503      -7.799  42.970 169.169  0.00  0.00     0.227 S 
ATOM     18  O1S SGN d 503      -8.091  41.571 169.421  0.00  0.00    -0.577 OA
ATOM     19  O2S SGN d 503      -7.812  43.284 167.741  0.00  0.00    -0.577 OA
ATOM     20  O3S SGN d 503      -6.610  43.420 169.856  0.00  0.00    -0.577 OA
ENDBRANCH  16  17
ENDBRANCH  11  16
BRANCH  13  21
ATOM     21  O4  IDS d 502      -8.995  44.764 172.578  0.00  0.00    -0.326 OA
BRANCH  21  22
ATOM     22  C4  IDS d 502      -7.682  45.235 172.741  0.00  0.00     0.189 C 
ATOM     23  C3  IDS d 502      -7.425  46.398 171.763  0.00  0.00     0.216 C 
ATOM     24  O3  IDS d 502      -6.050  46.728 171.794  0.00  0.00    -0.218 OA
ATOM     25  C2  IDS d 502      -8.221  47.642 172.169  0.00  0.00     0.229 C 
ATOM     26  C1  IDS d 502      -8.064  47.958 173.653  0.00  0.00     0.301 C 
ATOM     27  O1  IDS d 502      -6.775  48.475 173.850  0.00  0.00    -0.187 OA
ATOM     28  O5  IDS d 502      -8.320  46.826 174.447  0.00  0.00    -0.316 OA
ATOM     29  C5  IDS d 502      -7.490  45.714 174.178  0.00  0.00     0.234 C 
BRANCH  25  30
ATOM     30  O2  IDS d 502      -9.575  47.369 171.923  0.00  0.00    -0.232 OA
BRANCH  30  31
ATOM     31  S   IDS d 502     -10.529  48.089 170.915  0.00  0.00     0.252 S 
ATOM     32  O3S IDS d 502     -11.676  48.466 171.700  0.00  0.00    -0.572 OA
ATOM     33  O2S IDS d 502     -10.821  47.118 169.886  0.00  0.00    -0.572 OA
ATOM     34  O1S IDS d 502      -9.825  49.232 170.404  0.00  0.00    -0.572 OA
ENDBRANCH  30  31
ENDBRANCH  25  30
BRANCH  29  35
ATOM     35  C6  IDS d 502      -7.685  44.630 175.229  0.00  0.00     0.216 C 
ATOM     36  O61 IDS d 502      -6.848  43.780 175.415  0.00  0.00    -0.646 OA
ATOM     37  O62 IDS d 502      -8.689  44.595 175.913  0.00  0.00    -0.646 OA
ENDBRANCH  29  35
ENDBRANCH  21  22
ENDBRANCH  13  21
BRANCH  15  38
ATOM     38  C6  SGN d 503     -11.705  42.426 174.587  0.00  0.00     0.198 C 
BRANCH  38  39
ATOM     39  O6  SGN d 503     -11.784  43.345 175.654  0.00  0.00    -0.235 OA
BRANCH  39  40
ATOM     40  S2  SGN d 503     -12.066  42.985 177.137  0.00  0.00     0.252 S 
ATOM     41  O4S SGN d 503     -11.913  44.164 177.920  0.00  0.00    -0.572 OA
ATOM     42  O5S SGN d 503     -13.428  42.462 177.198  0.00  0.00    -0.572 OA
ATOM     43  O6S SGN d 503     -11.053  42.056 177.456  0.00  0.00    -0.572 OA
ENDBRANCH  39  40
ENDBRANCH  38  39
ENDBRANCH  15  38
ENDBRANCH   8   9
ENDBRANCH   5   8
BRANCH   1  44
ATOM     44  O2  IDS d 504     -14.147  46.579 170.753  0.00  0.00    -0.233 OA
BRANCH  44  45
ATOM     45  S   IDS d 504     -14.441  47.110 169.338  0.00  0.00     0.252 S 
ATOM     46  O3S IDS d 504     -13.782  46.187 168.492  0.00  0.00    -0.572 OA
ATOM     47  O2S IDS d 504     -13.946  48.453 169.267  0.00  0.00    -0.572 OA
ATOM     48  O1S IDS d 504     -15.848  47.063 169.177  0.00  0.00    -0.572 OA
ENDBRANCH  44  45
ENDBRANCH   1  44
BRANCH   4  49
ATOM     49  C6  IDS d 504     -14.342  45.629 175.583  0.00  0.00     0.216 C 
ATOM     50  O62 IDS d 504     -15.161  45.269 176.431  0.00  0.00    -0.646 OA
ATOM     51  O61 IDS d 504     -13.422  46.351 175.944  0.00  0.00    -0.646 OA
ENDBRANCH   4  49
BRANCH   7  52
ATOM     52  O4  IDS d 504     -15.536  47.206 173.260  0.00  0.00    -0.326 OA
BRANCH  52  53
ATOM     53  C1  SGN d 505     -16.495  47.938 173.974  0.00  0.00     0.263 C 
ATOM     54  C2  SGN d 505     -17.089  49.050 173.131  0.00  0.00     0.207 C 
ATOM     55  C3  SGN d 505     -16.026  50.118 172.807  0.00  0.00     0.210 C 
ATOM     56  C4  SGN d 505     -15.498  50.616 174.184  0.00  0.00     0.180 C 
ATOM     57  O3  SGN d 505     -16.654  51.179 172.100  0.00  0.00    -0.218 OA
ATOM     58  C5  SGN d 505     -14.929  49.422 174.880  0.00  0.00     0.179 C 
ATOM     59  O5  SGN d 505     -15.929  48.484 175.132  0.00  0.00    -0.327 OA
BRANCH  54  60
ATOM     60  N   SGN d 505     -17.774  48.460 171.956  0.00  0.00    -0.162 NA
BRANCH  60  61
ATOM     61  S1  SGN d 505     -19.433  48.667 171.843  0.00  0.00     0.227 S 
ATOM     62  O3S SGN d 505     -19.858  47.973 170.680  0.00  0.00    -0.577 OA
ATOM     63  O1S SGN d 505     -20.022  48.148 173.060  0.00  0.00    -0.577 OA
ATOM     64  O2S SGN d 505     -19.621  50.092 171.704  0.00  0.00    -0.577 OA
ENDBRANCH  60  61
ENDBRANCH  54  60
BRANCH  56  65
ATOM     65  O4  SGN d 505     -14.453  51.564 174.128  0.00  0.00    -0.326 OA
BRANCH  65  66
ATOM     66  C1  IDS d 506     -14.654  52.914 173.886  0.00  0.00     0.269 C 
ATOM     67  C2  IDS d 506     -13.291  53.619 173.835  0.00  0.00     0.226 C 
ATOM     68  C3  IDS d 506     -13.396  55.168 173.907  0.00  0.00     0.219 C 
ATOM     69  O3  IDS d 506     -13.662  55.665 172.598  0.00  0.00    -0.218 OA
ATOM     70  C4  IDS d 506     -14.503  55.671 174.858  0.00  0.00     0.223 C 
ATOM     71  O4  IDS d 506     -13.982  55.631 176.165  0.00  0.00    -0.217 OA
ATOM     72  C5  IDS d 506     -15.744  54.776 174.768  0.00  0.00     0.237 C 
ATOM     73  O5  IDS d 506     -15.388  53.447 174.959  0.00  0.00    -0.318 OA
BRANCH  67  74
ATOM     74  O2  IDS d 506     -12.492  53.211 174.928  0.00  0.00    -0.233 OA
BRANCH  74  75
ATOM     75  S   IDS d 506     -11.207  52.277 174.913  0.00  0.00     0.252 S 
ATOM     76  O1S IDS d 506     -11.543  51.196 174.039  0.00  0.00    -0.572 OA
ATOM     77  O2S IDS d 506     -10.107  53.039 174.392  0.00  0.00    -0.572 OA
ATOM     78  O3S IDS d 506     -11.015  51.861 176.286  0.00  0.00    -0.572 OA
ENDBRANCH  74  75
ENDBRANCH  67  74
BRANCH  72  79
ATOM     79  C6  IDS d 506     -16.900  55.125 175.686  0.00  0.00     0.217 C 
ATOM     80  O61 IDS d 506     -17.164  56.296 175.920  0.00  0.00    -0.646 OA
ATOM     81  O62 IDS d 506     -17.581  54.268 176.223  0.00  0.00    -0.646 OA
ENDBRANCH  72  79
ENDBRANCH  65  66
ENDBRANCH  56  65
BRANCH  58  82
ATOM     82  C6  SGN d 505     -14.325  49.757 176.205  0.00  0.00     0.198 C 
BRANCH  82  83
ATOM     83  O6  SGN d 505     -15.322  50.426 176.900  0.00  0.00    -0.235 OA
BRANCH  83  84
ATOM     84  S2  SGN d 505     -15.155  51.318 178.121  0.00  0.00     0.252 S 
ATOM     85  O6S SGN d 505     -16.430  51.991 178.331  0.00  0.00    -0.572 OA
ATOM     86  O4S SGN d 505     -14.819  50.412 179.195  0.00  0.00    -0.572 OA
ATOM     87  O5S SGN d 505     -14.101  52.233 177.759  0.00  0.00    -0.572 OA
ENDBRANCH  83  84
ENDBRANCH  82  83
ENDBRANCH  58  82
ENDBRANCH  52  53
ENDBRANCH   7  52
TORSDOF 27

ENDMDL
MODEL 69
REMARK VINA RESULT:       5.2      4.974     10.272
REMARK  27 active torsions:
REMARK  status: ('A' for Active; 'I' for Inactive)
REMARK    1  A    between atoms: C2_1  and  O2_78 
REMARK    2  A    between atoms: C1_3  and  O4_50 
REMARK    3  A    between atoms: O4_5  and  C4_58 
REMARK    4  A    between atoms: O4_5  and  C1_27 
REMARK    5  A    between atoms: C2_6  and  N_39 
REMARK    6  A    between atoms: S1_9  and  N_39 
REMARK    7  A    between atoms: C6_10  and  C5_52 
REMARK    8  A    between atoms: C2_12  and  N_73 
REMARK    9  A    between atoms: C2_19  and  O2_24 
REMARK   10  A    between atoms: C2_21  and  O2_44 
REMARK   11  A    between atoms: S2_23  and  O6_65 
REMARK   12  A    between atoms: O2_24  and  S_54 
REMARK   13  A    between atoms: C1_28  and  O4_60 
REMARK   14  A    between atoms: C5_29  and  C6_38 
REMARK   15  A    between atoms: C5_30  and  C6_33 
REMARK   16  A    between atoms: S1_34  and  N_73 
REMARK   17  A    between atoms: C5_41  and  C6_46 
REMARK   18  A    between atoms: S_43  and  O2_44 
REMARK   19  A    between atoms: C6_46  and  O6_72 
REMARK   20  A    between atoms: O4_50  and  C4_71 
REMARK   21  A    between atoms: C1_56  and  O4_64 
REMARK   22  A    between atoms: O4_60  and  C4_83 
REMARK   23  A    between atoms: C4_61  and  O4_64 
REMARK   24  A    between atoms: S2_63  and  O6_72 
REMARK   25  A    between atoms: O6_65  and  C6_67 
REMARK   26  A    between atoms: C6_67  and  C5_75 
REMARK   27  A    between atoms: S_76  and  O2_78 
ROOT
ATOM      1  C2  IDS d 504     -15.353  50.979 175.935  0.00  0.00     0.226 C 
ATOM      2  O3  IDS d 504     -14.464  52.813 177.299  0.00  0.00    -0.218 OA
ATOM      3  O5  IDS d 504     -14.056  51.668 173.991  0.00  0.00    -0.318 OA
ATOM      4  C5  IDS d 504     -13.953  53.001 174.436  0.00  0.00     0.234 C 
ATOM      5  C1  IDS d 504     -14.159  50.702 175.043  0.00  0.00     0.269 C 
ATOM      6  C3  IDS d 504     -15.464  52.500 176.338  0.00  0.00     0.216 C 
ATOM      7  C4  IDS d 504     -15.240  53.417 175.145  0.00  0.00     0.189 C 
ENDROOT
BRANCH   5   8
ATOM      8  O4  SGN d 503     -13.013  50.657 175.843  0.00  0.00    -0.326 OA
BRANCH   8   9
ATOM      9  C4  SGN d 503     -12.182  49.574 175.580  0.00  0.00     0.180 C 
ATOM     10  C3  SGN d 503     -13.052  48.345 175.329  0.00  0.00     0.210 C 
ATOM     11  C2  SGN d 503     -12.161  47.223 174.829  0.00  0.00     0.207 C 
ATOM     12  O3  SGN d 503     -13.652  47.973 176.556  0.00  0.00    -0.218 OA
ATOM     13  C1  SGN d 503     -11.323  47.662 173.619  0.00  0.00     0.263 C 
ATOM     14  O5  SGN d 503     -10.563  48.794 173.961  0.00  0.00    -0.327 OA
ATOM     15  C5  SGN d 503     -11.339  49.890 174.332  0.00  0.00     0.179 C 
BRANCH  11  16
ATOM     16  N   SGN d 503     -12.934  46.036 174.508  0.00  0.00    -0.162 NA
BRANCH  16  17
ATOM     17  S1  SGN d 503     -12.667  44.700 175.397  0.00  0.00     0.227 S 
ATOM     18  O1S SGN d 503     -13.786  44.594 176.314  0.00  0.00    -0.577 OA
ATOM     19  O2S SGN d 503     -12.590  43.555 174.490  0.00  0.00    -0.577 OA
ATOM     20  O3S SGN d 503     -11.424  44.994 176.073  0.00  0.00    -0.577 OA
ENDBRANCH  16  17
ENDBRANCH  11  16
BRANCH  13  21
ATOM     21  O4  IDS d 502     -12.139  47.909 172.507  0.00  0.00    -0.326 OA
BRANCH  21  22
ATOM     22  C4  IDS d 502     -11.901  47.072 171.405  0.00  0.00     0.189 C 
ATOM     23  C3  IDS d 502     -13.239  46.530 170.868  0.00  0.00     0.216 C 
ATOM     24  O3  IDS d 502     -12.976  45.538 169.895  0.00  0.00    -0.218 OA
ATOM     25  C2  IDS d 502     -14.053  47.644 170.202  0.00  0.00     0.229 C 
ATOM     26  C1  IDS d 502     -13.211  48.458 169.225  0.00  0.00     0.301 C 
ATOM     27  O1  IDS d 502     -12.988  47.669 168.087  0.00  0.00    -0.187 OA
ATOM     28  O5  IDS d 502     -12.016  48.896 169.821  0.00  0.00    -0.316 OA
ATOM     29  C5  IDS d 502     -11.185  47.863 170.312  0.00  0.00     0.234 C 
BRANCH  25  30
ATOM     30  O2  IDS d 502     -14.492  48.504 171.220  0.00  0.00    -0.232 OA
BRANCH  30  31
ATOM     31  S   IDS d 502     -15.877  48.501 171.945  0.00  0.00     0.252 S 
ATOM     32  O3S IDS d 502     -16.236  49.891 172.059  0.00  0.00    -0.572 OA
ATOM     33  O2S IDS d 502     -15.656  47.851 173.216  0.00  0.00    -0.572 OA
ATOM     34  O1S IDS d 502     -16.793  47.773 171.112  0.00  0.00    -0.572 OA
ENDBRANCH  30  31
ENDBRANCH  25  30
BRANCH  29  35
ATOM     35  C6  IDS d 502      -9.828  48.414 170.727  0.00  0.00     0.216 C 
ATOM     36  O61 IDS d 502      -8.918  47.680 171.027  0.00  0.00    -0.646 OA
ATOM     37  O62 IDS d 502      -9.624  49.612 170.763  0.00  0.00    -0.646 OA
ENDBRANCH  29  35
ENDBRANCH  21  22
ENDBRANCH  13  21
BRANCH  15  38
ATOM     38  C6  SGN d 503     -10.351  51.010 174.515  0.00  0.00     0.198 C 
BRANCH  38  39
ATOM     39  O6  SGN d 503      -9.059  50.466 174.362  0.00  0.00    -0.235 OA
BRANCH  39  40
ATOM     40  S2  SGN d 503      -7.931  50.504 175.428  0.00  0.00     0.252 S 
ATOM     41  O4S SGN d 503      -8.535  50.559 176.716  0.00  0.00    -0.572 OA
ATOM     42  O5S SGN d 503      -7.134  49.295 175.250  0.00  0.00    -0.572 OA
ATOM     43  O6S SGN d 503      -7.255  51.712 175.157  0.00  0.00    -0.572 OA
ENDBRANCH  39  40
ENDBRANCH  38  39
ENDBRANCH  15  38
ENDBRANCH   8   9
ENDBRANCH   5   8
BRANCH   1  44
ATOM     44  O2  IDS d 504     -16.531  50.557 175.251  0.00  0.00    -0.233 OA
BRANCH  44  45
ATOM     45  S   IDS d 504     -17.620  49.612 175.792  0.00  0.00     0.252 S 
ATOM     46  O3S IDS d 504     -16.884  48.566 176.397  0.00  0.00    -0.572 OA
ATOM     47  O2S IDS d 504     -18.437  49.212 174.684  0.00  0.00    -0.572 OA
ATOM     48  O1S IDS d 504     -18.360  50.358 176.743  0.00  0.00    -0.572 OA
ENDBRANCH  44  45
ENDBRANCH   1  44
BRANCH   4  49
ATOM     49  C6  IDS d 504     -13.518  53.921 173.282  0.00  0.00     0.216 C 
ATOM     50  O62 IDS d 504     -12.598  54.729 173.424  0.00  0.00    -0.646 OA
ATOM     51  O61 IDS d 504     -14.088  53.884 172.199  0.00  0.00    -0.646 OA
ENDBRANCH   4  49
BRANCH   7  52
ATOM     52  O4  IDS d 504     -16.344  53.311 174.258  0.00  0.00    -0.326 OA
BRANCH  52  53
ATOM     53  C1  SGN d 505     -17.391  54.197 174.547  0.00  0.00     0.263 C 
ATOM     54  C2  SGN d 505     -18.628  53.884 173.729  0.00  0.00     0.207 C 
ATOM     55  C3  SGN d 505     -18.374  54.144 172.232  0.00  0.00     0.210 C 
ATOM     56  C4  SGN d 505     -17.942  55.636 172.132  0.00  0.00     0.180 C 
ATOM     57  O3  SGN d 505     -19.588  53.928 171.524  0.00  0.00    -0.218 OA
ATOM     58  C5  SGN d 505     -16.709  55.780 172.964  0.00  0.00     0.179 C 
ATOM     59  O5  SGN d 505     -16.994  55.517 174.303  0.00  0.00    -0.327 OA
BRANCH  54  60
ATOM     60  N   SGN d 505     -19.104  52.521 174.064  0.00  0.00    -0.162 NA
BRANCH  60  61
ATOM     61  S1  SGN d 505     -20.669  52.369 174.643  0.00  0.00     0.227 S 
ATOM     62  O3S SGN d 505     -20.590  52.386 176.060  0.00  0.00    -0.577 OA
ATOM     63  O1S SGN d 505     -21.444  53.468 174.106  0.00  0.00    -0.577 OA
ATOM     64  O2S SGN d 505     -21.122  51.086 174.157  0.00  0.00    -0.577 OA
ENDBRANCH  60  61
ENDBRANCH  54  60
BRANCH  56  65
ATOM     65  O4  SGN d 505     -17.588  56.082 170.839  0.00  0.00    -0.326 OA
BRANCH  65  66
ATOM     66  C1  IDS d 506     -18.406  56.879 170.053  0.00  0.00     0.269 C 
ATOM     67  C2  IDS d 506     -17.626  57.309 168.802  0.00  0.00     0.226 C 
ATOM     68  C3  IDS d 506     -18.308  58.466 168.020  0.00  0.00     0.219 C 
ATOM     69  O3  IDS d 506     -19.303  57.909 167.165  0.00  0.00    -0.218 OA
ATOM     70  C4  IDS d 506     -18.975  59.521 168.928  0.00  0.00     0.223 C 
ATOM     71  O4  IDS d 506     -17.962  60.396 169.367  0.00  0.00    -0.217 OA
ATOM     72  C5  IDS d 506     -19.642  58.854 170.136  0.00  0.00     0.237 C 
ATOM     73  O5  IDS d 506     -18.732  58.031 170.789  0.00  0.00    -0.318 OA
BRANCH  67  74
ATOM     74  O2  IDS d 506     -16.337  57.764 169.164  0.00  0.00    -0.233 OA
BRANCH  74  75
ATOM     75  S   IDS d 506     -14.927  57.206 168.689  0.00  0.00     0.252 S 
ATOM     76  O1S IDS d 506     -14.269  58.324 168.087  0.00  0.00    -0.572 OA
ATOM     77  O2S IDS d 506     -14.214  56.751 169.849  0.00  0.00    -0.572 OA
ATOM     78  O3S IDS d 506     -15.226  56.147 167.750  0.00  0.00    -0.572 OA
ENDBRANCH  74  75
ENDBRANCH  67  74
BRANCH  72  79
ATOM     79  C6  IDS d 506     -20.300  59.777 171.144  0.00  0.00     0.217 C 
ATOM     80  O61 IDS d 506     -21.262  60.456 170.815  0.00  0.00    -0.646 OA
ATOM     81  O62 IDS d 506     -19.890  59.883 172.287  0.00  0.00    -0.646 OA
ENDBRANCH  72  79
ENDBRANCH  65  66
ENDBRANCH  56  65
BRANCH  58  82
ATOM     82  C6  SGN d 505     -16.138  57.160 172.919  0.00  0.00     0.198 C 
BRANCH  82  83
ATOM     83  O6  SGN d 505     -14.906  57.064 173.550  0.00  0.00    -0.235 OA
BRANCH  83  84
ATOM     84  S2  SGN d 505     -14.451  57.802 174.800  0.00  0.00     0.252 S 
ATOM     85  O6S SGN d 505     -15.572  58.622 175.240  0.00  0.00    -0.572 OA
ATOM     86  O4S SGN d 505     -14.120  56.757 175.743  0.00  0.00    -0.572 OA
ATOM     87  O5S SGN d 505     -13.327  58.592 174.365  0.00  0.00    -0.572 OA
ENDBRANCH  83  84
ENDBRANCH  82  83
ENDBRANCH  58  82
ENDBRANCH  52  53
ENDBRANCH   7  52
TORSDOF 27

ENDMDL
MODEL 70
REMARK VINA RESULT:       5.3      3.553     10.656
REMARK  27 active torsions:
REMARK  status: ('A' for Active; 'I' for Inactive)
REMARK    1  A    between atoms: C2_1  and  O2_78 
REMARK    2  A    between atoms: C1_3  and  O4_50 
REMARK    3  A    between atoms: O4_5  and  C4_58 
REMARK    4  A    between atoms: O4_5  and  C1_27 
REMARK    5  A    between atoms: C2_6  and  N_39 
REMARK    6  A    between atoms: S1_9  and  N_39 
REMARK    7  A    between atoms: C6_10  and  C5_52 
REMARK    8  A    between atoms: C2_12  and  N_73 
REMARK    9  A    between atoms: C2_19  and  O2_24 
REMARK   10  A    between atoms: C2_21  and  O2_44 
REMARK   11  A    between atoms: S2_23  and  O6_65 
REMARK   12  A    between atoms: O2_24  and  S_54 
REMARK   13  A    between atoms: C1_28  and  O4_60 
REMARK   14  A    between atoms: C5_29  and  C6_38 
REMARK   15  A    between atoms: C5_30  and  C6_33 
REMARK   16  A    between atoms: S1_34  and  N_73 
REMARK   17  A    between atoms: C5_41  and  C6_46 
REMARK   18  A    between atoms: S_43  and  O2_44 
REMARK   19  A    between atoms: C6_46  and  O6_72 
REMARK   20  A    between atoms: O4_50  and  C4_71 
REMARK   21  A    between atoms: C1_56  and  O4_64 
REMARK   22  A    between atoms: O4_60  and  C4_83 
REMARK   23  A    between atoms: C4_61  and  O4_64 
REMARK   24  A    between atoms: S2_63  and  O6_72 
REMARK   25  A    between atoms: O6_65  and  C6_67 
REMARK   26  A    between atoms: C6_67  and  C5_75 
REMARK   27  A    between atoms: S_76  and  O2_78 
ROOT
ATOM      1  C2  IDS d 504     -14.306  48.848 176.947  0.00  0.00     0.226 C 
ATOM      2  O3  IDS d 504     -14.000  50.892 178.268  0.00  0.00    -0.218 OA
ATOM      3  O5  IDS d 504     -13.423  49.901 174.935  0.00  0.00    -0.318 OA
ATOM      4  C5  IDS d 504     -13.743  51.199 175.381  0.00  0.00     0.234 C 
ATOM      5  C1  IDS d 504     -13.141  48.970 175.986  0.00  0.00     0.269 C 
ATOM      6  C3  IDS d 504     -14.892  50.252 177.364  0.00  0.00     0.216 C 
ATOM      7  C4  IDS d 504     -15.053  51.174 176.166  0.00  0.00     0.189 C 
ENDROOT
BRANCH   5   8
ATOM      8  O4  SGN d 503     -12.001  49.318 176.718  0.00  0.00    -0.326 OA
BRANCH   8   9
ATOM      9  C4  SGN d 503     -10.866  48.592 176.378  0.00  0.00     0.180 C 
ATOM     10  C3  SGN d 503     -11.305  47.257 175.782  0.00  0.00     0.210 C 
ATOM     11  C2  SGN d 503     -10.082  46.562 175.212  0.00  0.00     0.207 C 
ATOM     12  O3  SGN d 503     -11.864  46.474 176.820  0.00  0.00    -0.218 OA
ATOM     13  C1  SGN d 503      -9.319  47.470 174.236  0.00  0.00     0.263 C 
ATOM     14  O5  SGN d 503      -8.962  48.664 174.887  0.00  0.00    -0.327 OA
ATOM     15  C5  SGN d 503     -10.059  49.394 175.342  0.00  0.00     0.179 C 
BRANCH  11  16
ATOM     16  N   SGN d 503     -10.437  45.309 174.568  0.00  0.00    -0.162 NA
BRANCH  16  17
ATOM     17  S1  SGN d 503      -9.804  43.942 175.183  0.00  0.00     0.227 S 
ATOM     18  O1S SGN d 503      -8.758  44.356 176.100  0.00  0.00    -0.577 OA
ATOM     19  O2S SGN d 503     -10.872  43.210 175.863  0.00  0.00    -0.577 OA
ATOM     20  O3S SGN d 503      -9.282  43.265 174.018  0.00  0.00    -0.577 OA
ENDBRANCH  16  17
ENDBRANCH  11  16
BRANCH  13  21
ATOM     21  O4  IDS d 502     -10.079  47.720 173.086  0.00  0.00    -0.326 OA
BRANCH  21  22
ATOM     22  C4  IDS d 502      -9.470  47.332 171.882  0.00  0.00     0.189 C 
ATOM     23  C3  IDS d 502     -10.344  46.277 171.176  0.00  0.00     0.216 C 
ATOM     24  O3  IDS d 502      -9.629  45.749 170.076  0.00  0.00    -0.218 OA
ATOM     25  C2  IDS d 502     -11.637  46.903 170.646  0.00  0.00     0.229 C 
ATOM     26  C1  IDS d 502     -11.370  48.189 169.871  0.00  0.00     0.301 C 
ATOM     27  O1  IDS d 502     -10.800  47.839 168.637  0.00  0.00    -0.187 OA
ATOM     28  O5  IDS d 502     -10.563  49.073 170.608  0.00  0.00    -0.316 OA
ATOM     29  C5  IDS d 502      -9.302  48.553 170.980  0.00  0.00     0.234 C 
BRANCH  25  30
ATOM     30  O2  IDS d 502     -12.431  47.222 171.757  0.00  0.00    -0.232 OA
BRANCH  30  31
ATOM     31  S   IDS d 502     -13.957  47.568 171.776  0.00  0.00     0.252 S 
ATOM     32  O3S IDS d 502     -14.509  46.854 170.653  0.00  0.00    -0.572 OA
ATOM     33  O2S IDS d 502     -14.038  49.004 171.650  0.00  0.00    -0.572 OA
ATOM     34  O1S IDS d 502     -14.485  47.098 173.027  0.00  0.00    -0.572 OA
ENDBRANCH  30  31
ENDBRANCH  25  30
BRANCH  29  35
ATOM     35  C6  IDS d 502      -8.421  49.647 171.568  0.00  0.00     0.216 C 
ATOM     36  O61 IDS d 502      -7.219  49.542 171.584  0.00  0.00    -0.646 OA
ATOM     37  O62 IDS d 502      -8.907  50.659 172.034  0.00  0.00    -0.646 OA
ENDBRANCH  29  35
ENDBRANCH  21  22
ENDBRANCH  13  21
BRANCH  15  38
ATOM     38  C6  SGN d 503      -9.469  50.674 175.870  0.00  0.00     0.198 C 
BRANCH  38  39
ATOM     39  O6  SGN d 503      -8.084  50.464 176.046  0.00  0.00    -0.235 OA
BRANCH  39  40
ATOM     40  S2  SGN d 503      -6.977  51.533 175.853  0.00  0.00     0.252 S 
ATOM     41  O4S SGN d 503      -6.125  51.505 176.994  0.00  0.00    -0.572 OA
ATOM     42  O5S SGN d 503      -6.260  51.191 174.628  0.00  0.00    -0.572 OA
ATOM     43  O6S SGN d 503      -7.689  52.750 175.810  0.00  0.00    -0.572 OA
ENDBRANCH  39  40
ENDBRANCH  38  39
ENDBRANCH  15  38
ENDBRANCH   8   9
ENDBRANCH   5   8
BRANCH   1  44
ATOM     44  O2  IDS d 504     -15.314  48.050 176.330  0.00  0.00    -0.233 OA
BRANCH  44  45
ATOM     45  S   IDS d 504     -15.847  46.695 176.829  0.00  0.00     0.252 S 
ATOM     46  O3S IDS d 504     -17.101  47.019 177.401  0.00  0.00    -0.572 OA
ATOM     47  O2S IDS d 504     -14.885  46.162 177.749  0.00  0.00    -0.572 OA
ATOM     48  O1S IDS d 504     -15.985  45.873 175.683  0.00  0.00    -0.572 OA
ENDBRANCH  44  45
ENDBRANCH   1  44
BRANCH   4  49
ATOM     49  C6  IDS d 504     -13.703  52.194 174.209  0.00  0.00     0.216 C 
ATOM     50  O62 IDS d 504     -14.373  52.007 173.191  0.00  0.00    -0.646 OA
ATOM     51  O61 IDS d 504     -12.991  53.189 174.252  0.00  0.00    -0.646 OA
ENDBRANCH   4  49
BRANCH   7  52
ATOM     52  O4  IDS d 504     -16.107  50.696 175.344  0.00  0.00    -0.326 OA
BRANCH  52  53
ATOM     53  C1  SGN d 505     -17.386  50.932 175.867  0.00  0.00     0.263 C 
ATOM     54  C2  SGN d 505     -18.471  50.441 174.929  0.00  0.00     0.207 C 
ATOM     55  C3  SGN d 505     -18.485  51.269 173.629  0.00  0.00     0.210 C 
ATOM     56  C4  SGN d 505     -18.688  52.747 174.074  0.00  0.00     0.180 C 
ATOM     57  O3  SGN d 505     -19.576  50.835 172.828  0.00  0.00    -0.218 OA
ATOM     58  C5  SGN d 505     -17.539  53.086 174.966  0.00  0.00     0.179 C 
ATOM     59  O5  SGN d 505     -17.568  52.297 176.116  0.00  0.00    -0.327 OA
BRANCH  54  60
ATOM     60  N   SGN d 505     -18.336  48.978 174.746  0.00  0.00    -0.162 NA
BRANCH  60  61
ATOM     61  S1  SGN d 505     -19.708  48.040 174.963  0.00  0.00     0.227 S 
ATOM     62  O3S SGN d 505     -20.457  48.118 173.760  0.00  0.00    -0.577 OA
ATOM     63  O1S SGN d 505     -19.275  46.695 175.274  0.00  0.00    -0.577 OA
ATOM     64  O2S SGN d 505     -20.412  48.660 176.062  0.00  0.00    -0.577 OA
ENDBRANCH  60  61
ENDBRANCH  54  60
BRANCH  56  65
ATOM     65  O4  SGN d 505     -18.665  53.704 173.036  0.00  0.00    -0.326 OA
BRANCH  65  66
ATOM     66  C1  IDS d 506     -19.793  54.103 172.335  0.00  0.00     0.269 C 
ATOM     67  C2  IDS d 506     -19.408  55.241 171.379  0.00  0.00     0.226 C 
ATOM     68  C3  IDS d 506     -20.634  55.994 170.793  0.00  0.00     0.219 C 
ATOM     69  O3  IDS d 506     -21.119  55.263 169.669  0.00  0.00    -0.218 OA
ATOM     70  C4  IDS d 506     -21.791  56.173 171.798  0.00  0.00     0.223 C 
ATOM     71  O4  IDS d 506     -21.477  57.285 172.604  0.00  0.00    -0.217 OA
ATOM     72  C5  IDS d 506     -21.947  54.927 172.675  0.00  0.00     0.237 C 
ATOM     73  O5  IDS d 506     -20.729  54.598 173.258  0.00  0.00    -0.318 OA
BRANCH  67  74
ATOM     74  O2  IDS d 506     -18.624  56.203 172.059  0.00  0.00    -0.233 OA
BRANCH  74  75
ATOM     75  S   IDS d 506     -17.315  56.945 171.548  0.00  0.00     0.252 S 
ATOM     76  O1S IDS d 506     -17.594  58.339 171.704  0.00  0.00    -0.572 OA
ATOM     77  O2S IDS d 506     -16.219  56.541 172.381  0.00  0.00    -0.572 OA
ATOM     78  O3S IDS d 506     -17.159  56.547 170.165  0.00  0.00    -0.572 OA
ENDBRANCH  74  75
ENDBRANCH  67  74
BRANCH  72  79
ATOM     79  C6  IDS d 506     -23.020  54.979 173.746  0.00  0.00     0.217 C 
ATOM     80  O61 IDS d 506     -24.200  55.031 173.427  0.00  0.00    -0.646 OA
ATOM     81  O62 IDS d 506     -22.748  54.987 174.934  0.00  0.00    -0.646 OA
ENDBRANCH  72  79
ENDBRANCH  65  66
ENDBRANCH  56  65
BRANCH  58  82
ATOM     82  C6  SGN d 505     -17.566  54.506 175.432  0.00  0.00     0.198 C 
BRANCH  82  83
ATOM     83  O6  SGN d 505     -16.276  54.976 175.238  0.00  0.00    -0.235 OA
BRANCH  83  84
ATOM     84  S2  SGN d 505     -15.313  55.489 176.299  0.00  0.00     0.252 S 
ATOM     85  O6S SGN d 505     -16.026  56.503 177.064  0.00  0.00    -0.572 OA
ATOM     86  O4S SGN d 505     -14.983  54.324 177.088  0.00  0.00    -0.572 OA
ATOM     87  O5S SGN d 505     -14.209  56.037 175.551  0.00  0.00    -0.572 OA
ENDBRANCH  83  84
ENDBRANCH  82  83
ENDBRANCH  58  82
ENDBRANCH  52  53
ENDBRANCH   7  52
TORSDOF 27

ENDMDL
MODEL 71
REMARK VINA RESULT:       5.3      4.299     10.721
REMARK  27 active torsions:
REMARK  status: ('A' for Active; 'I' for Inactive)
REMARK    1  A    between atoms: C2_1  and  O2_78 
REMARK    2  A    between atoms: C1_3  and  O4_50 
REMARK    3  A    between atoms: O4_5  and  C4_58 
REMARK    4  A    between atoms: O4_5  and  C1_27 
REMARK    5  A    between atoms: C2_6  and  N_39 
REMARK    6  A    between atoms: S1_9  and  N_39 
REMARK    7  A    between atoms: C6_10  and  C5_52 
REMARK    8  A    between atoms: C2_12  and  N_73 
REMARK    9  A    between atoms: C2_19  and  O2_24 
REMARK   10  A    between atoms: C2_21  and  O2_44 
REMARK   11  A    between atoms: S2_23  and  O6_65 
REMARK   12  A    between atoms: O2_24  and  S_54 
REMARK   13  A    between atoms: C1_28  and  O4_60 
REMARK   14  A    between atoms: C5_29  and  C6_38 
REMARK   15  A    between atoms: C5_30  and  C6_33 
REMARK   16  A    between atoms: S1_34  and  N_73 
REMARK   17  A    between atoms: C5_41  and  C6_46 
REMARK   18  A    between atoms: S_43  and  O2_44 
REMARK   19  A    between atoms: C6_46  and  O6_72 
REMARK   20  A    between atoms: O4_50  and  C4_71 
REMARK   21  A    between atoms: C1_56  and  O4_64 
REMARK   22  A    between atoms: O4_60  and  C4_83 
REMARK   23  A    between atoms: C4_61  and  O4_64 
REMARK   24  A    between atoms: S2_63  and  O6_72 
REMARK   25  A    between atoms: O6_65  and  C6_67 
REMARK   26  A    between atoms: C6_67  and  C5_75 
REMARK   27  A    between atoms: S_76  and  O2_78 
ROOT
ATOM      1  C2  IDS d 504     -14.834  49.757 176.563  0.00  0.00     0.226 C 
ATOM      2  O3  IDS d 504     -14.053  51.496 178.105  0.00  0.00    -0.218 OA
ATOM      3  O5  IDS d 504     -13.970  50.952 174.624  0.00  0.00    -0.318 OA
ATOM      4  C5  IDS d 504     -14.015  52.201 175.277  0.00  0.00     0.234 C 
ATOM      5  C1  IDS d 504     -13.760  49.838 175.497  0.00  0.00     0.269 C 
ATOM      6  C3  IDS d 504     -15.123  51.155 177.234  0.00  0.00     0.216 C 
ATOM      7  C4  IDS d 504     -15.230  52.265 176.200  0.00  0.00     0.189 C 
ENDROOT
BRANCH   5   8
ATOM      8  O4  SGN d 503     -12.514  49.881 176.131  0.00  0.00    -0.326 OA
BRANCH   8   9
ATOM      9  C4  SGN d 503     -11.575  49.009 175.593  0.00  0.00     0.180 C 
ATOM     10  C3  SGN d 503     -12.265  47.681 175.289  0.00  0.00     0.210 C 
ATOM     11  C2  SGN d 503     -11.301  46.810 174.504  0.00  0.00     0.207 C 
ATOM     12  O3  SGN d 503     -12.585  47.059 176.518  0.00  0.00    -0.218 OA
ATOM     13  C1  SGN d 503     -10.758  47.540 173.267  0.00  0.00     0.263 C 
ATOM     14  O5  SGN d 503     -10.144  48.741 173.662  0.00  0.00    -0.327 OA
ATOM     15  C5  SGN d 503     -11.014  49.623 174.299  0.00  0.00     0.179 C 
BRANCH  11  16
ATOM     16  N   SGN d 503     -11.915  45.551 174.123  0.00  0.00    -0.162 NA
BRANCH  16  17
ATOM     17  S1  SGN d 503     -10.981  44.218 174.149  0.00  0.00     0.227 S 
ATOM     18  O1S SGN d 503     -10.578  43.980 172.776  0.00  0.00    -0.577 OA
ATOM     19  O2S SGN d 503      -9.836  44.481 175.020  0.00  0.00    -0.577 OA
ATOM     20  O3S SGN d 503     -11.874  43.198 174.649  0.00  0.00    -0.577 OA
ENDBRANCH  16  17
ENDBRANCH  11  16
BRANCH  13  21
ATOM     21  O4  IDS d 502     -11.777  47.767 172.332  0.00  0.00    -0.326 OA
BRANCH  21  22
ATOM     22  C4  IDS d 502     -11.664  47.023 171.146  0.00  0.00     0.189 C 
ATOM     23  C3  IDS d 502     -13.054  46.506 170.727  0.00  0.00     0.216 C 
ATOM     24  O3  IDS d 502     -12.901  45.598 169.654  0.00  0.00    -0.218 OA
ATOM     25  C2  IDS d 502     -13.946  47.657 170.252  0.00  0.00     0.229 C 
ATOM     26  C1  IDS d 502     -13.229  48.557 169.251  0.00  0.00     0.301 C 
ATOM     27  O1  IDS d 502     -13.137  47.863 168.035  0.00  0.00    -0.187 OA
ATOM     28  O5  IDS d 502     -11.974  48.964 169.737  0.00  0.00    -0.316 OA
ATOM     29  C5  IDS d 502     -11.086  47.908 170.044  0.00  0.00     0.234 C 
BRANCH  25  30
ATOM     30  O2  IDS d 502     -14.267  48.428 171.379  0.00  0.00    -0.232 OA
BRANCH  30  31
ATOM     31  S   IDS d 502     -15.481  49.396 171.562  0.00  0.00     0.252 S 
ATOM     32  O3S IDS d 502     -14.930  50.715 171.386  0.00  0.00    -0.572 OA
ATOM     33  O2S IDS d 502     -15.986  49.149 172.893  0.00  0.00    -0.572 OA
ATOM     34  O1S IDS d 502     -16.442  49.072 170.545  0.00  0.00    -0.572 OA
ENDBRANCH  30  31
ENDBRANCH  25  30
BRANCH  29  35
ATOM     35  C6  IDS d 502      -9.693  48.445 170.341  0.00  0.00     0.216 C 
ATOM     36  O61 IDS d 502      -9.506  49.619 170.553  0.00  0.00    -0.646 OA
ATOM     37  O62 IDS d 502      -8.731  47.703 170.378  0.00  0.00    -0.646 OA
ENDBRANCH  29  35
ENDBRANCH  21  22
ENDBRANCH  13  21
BRANCH  15  38
ATOM     38  C6  SGN d 503     -10.202  50.874 174.505  0.00  0.00     0.198 C 
BRANCH  38  39
ATOM     39  O6  SGN d 503      -9.368  50.660 175.623  0.00  0.00    -0.235 OA
BRANCH  39  40
ATOM     40  S2  SGN d 503      -7.826  50.831 175.645  0.00  0.00     0.252 S 
ATOM     41  O4S SGN d 503      -7.232  49.549 175.475  0.00  0.00    -0.572 OA
ATOM     42  O5S SGN d 503      -7.481  51.741 174.558  0.00  0.00    -0.572 OA
ATOM     43  O6S SGN d 503      -7.562  51.320 176.942  0.00  0.00    -0.572 OA
ENDBRANCH  39  40
ENDBRANCH  38  39
ENDBRANCH  15  38
ENDBRANCH   8   9
ENDBRANCH   5   8
BRANCH   1  44
ATOM     44  O2  IDS d 504     -16.020  49.236 175.966  0.00  0.00    -0.233 OA
BRANCH  44  45
ATOM     45  S   IDS d 504     -16.572  47.806 176.112  0.00  0.00     0.252 S 
ATOM     46  O3S IDS d 504     -16.417  47.529 177.491  0.00  0.00    -0.572 OA
ATOM     47  O2S IDS d 504     -15.816  46.958 175.238  0.00  0.00    -0.572 OA
ATOM     48  O1S IDS d 504     -17.937  47.864 175.734  0.00  0.00    -0.572 OA
ENDBRANCH  44  45
ENDBRANCH   1  44
BRANCH   4  49
ATOM     49  C6  IDS d 504     -13.909  53.346 174.256  0.00  0.00     0.216 C 
ATOM     50  O62 IDS d 504     -13.701  54.505 174.618  0.00  0.00    -0.646 OA
ATOM     51  O61 IDS d 504     -14.048  53.135 173.057  0.00  0.00    -0.646 OA
ENDBRANCH   4  49
BRANCH   7  52
ATOM     52  O4  IDS d 504     -16.423  52.096 175.450  0.00  0.00    -0.326 OA
BRANCH  52  53
ATOM     53  C1  SGN d 505     -17.527  52.779 175.978  0.00  0.00     0.263 C 
ATOM     54  C2  SGN d 505     -18.818  52.362 175.300  0.00  0.00     0.207 C 
ATOM     55  C3  SGN d 505     -18.827  52.805 173.824  0.00  0.00     0.210 C 
ATOM     56  C4  SGN d 505     -18.623  54.347 173.846  0.00  0.00     0.180 C 
ATOM     57  O3  SGN d 505     -20.091  52.476 173.262  0.00  0.00    -0.218 OA
ATOM     58  C5  SGN d 505     -17.312  54.595 174.519  0.00  0.00     0.179 C 
ATOM     59  O5  SGN d 505     -17.356  54.161 175.844  0.00  0.00    -0.327 OA
BRANCH  54  60
ATOM     60  N   SGN d 505     -19.046  50.916 175.530  0.00  0.00    -0.162 NA
BRANCH  60  61
ATOM     61  S1  SGN d 505     -20.541  50.455 176.131  0.00  0.00     0.227 S 
ATOM     62  O3S SGN d 505     -21.324  51.634 176.243  0.00  0.00    -0.577 OA
ATOM     63  O1S SGN d 505     -21.104  49.488 175.211  0.00  0.00    -0.577 OA
ATOM     64  O2S SGN d 505     -20.261  49.885 177.427  0.00  0.00    -0.577 OA
ENDBRANCH  60  61
ENDBRANCH  54  60
BRANCH  56  65
ATOM     65  O4  SGN d 505     -18.530  54.968 172.581  0.00  0.00    -0.326 OA
BRANCH  65  66
ATOM     66  C1  IDS d 506     -19.562  54.981 171.656  0.00  0.00     0.269 C 
ATOM     67  C2  IDS d 506     -19.149  55.856 170.463  0.00  0.00     0.226 C 
ATOM     68  C3  IDS d 506     -20.336  56.221 169.529  0.00  0.00     0.219 C 
ATOM     69  O3  IDS d 506     -20.544  55.143 168.620  0.00  0.00    -0.218 OA
ATOM     70  C4  IDS d 506     -21.657  56.493 170.279  0.00  0.00     0.223 C 
ATOM     71  O4  IDS d 506     -21.603  57.819 170.753  0.00  0.00    -0.217 OA
ATOM     72  C5  IDS d 506     -21.819  55.529 171.459  0.00  0.00     0.237 C 
ATOM     73  O5  IDS d 506     -20.687  55.564 172.264  0.00  0.00    -0.318 OA
BRANCH  67  74
ATOM     74  O2  IDS d 506     -18.599  57.075 170.922  0.00  0.00    -0.233 OA
BRANCH  74  75
ATOM     75  S   IDS d 506     -17.141  57.653 170.670  0.00  0.00     0.252 S 
ATOM     76  O1S IDS d 506     -17.267  58.490 169.516  0.00  0.00    -0.572 OA
ATOM     77  O2S IDS d 506     -16.758  58.418 171.823  0.00  0.00    -0.572 OA
ATOM     78  O3S IDS d 506     -16.299  56.498 170.446  0.00  0.00    -0.572 OA
ENDBRANCH  74  75
ENDBRANCH  67  74
BRANCH  72  79
ATOM     79  C6  IDS d 506     -23.055  55.711 172.320  0.00  0.00     0.217 C 
ATOM     80  O61 IDS d 506     -22.958  56.213 173.431  0.00  0.00    -0.646 OA
ATOM     81  O62 IDS d 506     -24.161  55.358 171.947  0.00  0.00    -0.646 OA
ENDBRANCH  72  79
ENDBRANCH  65  66
ENDBRANCH  56  65
BRANCH  58  82
ATOM     82  C6  SGN d 505     -16.949  56.044 174.565  0.00  0.00     0.198 C 
BRANCH  82  83
ATOM     83  O6  SGN d 505     -17.913  56.635 175.368  0.00  0.00    -0.235 OA
BRANCH  83  84
ATOM     84  S2  SGN d 505     -18.511  58.026 175.217  0.00  0.00     0.252 S 
ATOM     85  O6S SGN d 505     -19.259  58.300 176.437  0.00  0.00    -0.572 OA
ATOM     86  O4S SGN d 505     -17.372  58.900 175.053  0.00  0.00    -0.572 OA
ATOM     87  O5S SGN d 505     -19.363  57.929 174.058  0.00  0.00    -0.572 OA
ENDBRANCH  83  84
ENDBRANCH  82  83
ENDBRANCH  58  82
ENDBRANCH  52  53
ENDBRANCH   7  52
TORSDOF 27

ENDMDL
MODEL 72
REMARK VINA RESULT:       5.3      4.344      7.803
REMARK  27 active torsions:
REMARK  status: ('A' for Active; 'I' for Inactive)
REMARK    1  A    between atoms: C2_1  and  O2_78 
REMARK    2  A    between atoms: C1_3  and  O4_50 
REMARK    3  A    between atoms: O4_5  and  C4_58 
REMARK    4  A    between atoms: O4_5  and  C1_27 
REMARK    5  A    between atoms: C2_6  and  N_39 
REMARK    6  A    between atoms: S1_9  and  N_39 
REMARK    7  A    between atoms: C6_10  and  C5_52 
REMARK    8  A    between atoms: C2_12  and  N_73 
REMARK    9  A    between atoms: C2_19  and  O2_24 
REMARK   10  A    between atoms: C2_21  and  O2_44 
REMARK   11  A    between atoms: S2_23  and  O6_65 
REMARK   12  A    between atoms: O2_24  and  S_54 
REMARK   13  A    between atoms: C1_28  and  O4_60 
REMARK   14  A    between atoms: C5_29  and  C6_38 
REMARK   15  A    between atoms: C5_30  and  C6_33 
REMARK   16  A    between atoms: S1_34  and  N_73 
REMARK   17  A    between atoms: C5_41  and  C6_46 
REMARK   18  A    between atoms: S_43  and  O2_44 
REMARK   19  A    between atoms: C6_46  and  O6_72 
REMARK   20  A    between atoms: O4_50  and  C4_71 
REMARK   21  A    between atoms: C1_56  and  O4_64 
REMARK   22  A    between atoms: O4_60  and  C4_83 
REMARK   23  A    between atoms: C4_61  and  O4_64 
REMARK   24  A    between atoms: S2_63  and  O6_72 
REMARK   25  A    between atoms: O6_65  and  C6_67 
REMARK   26  A    between atoms: C6_67  and  C5_75 
REMARK   27  A    between atoms: S_76  and  O2_78 
ROOT
ATOM      1  C2  IDS d 504     -16.496  51.271 175.746  0.00  0.00     0.226 C 
ATOM      2  O3  IDS d 504     -18.306  49.687 175.267  0.00  0.00    -0.218 OA
ATOM      3  O5  IDS d 504     -16.000  51.570 173.379  0.00  0.00    -0.318 OA
ATOM      4  C5  IDS d 504     -16.551  50.322 173.027  0.00  0.00     0.234 C 
ATOM      5  C1  IDS d 504     -16.597  52.173 174.532  0.00  0.00     0.269 C 
ATOM      6  C3  IDS d 504     -16.895  49.780 175.423  0.00  0.00     0.216 C 
ATOM      7  C4  IDS d 504     -16.269  49.297 174.124  0.00  0.00     0.189 C 
ENDROOT
BRANCH   5   8
ATOM      8  O4  SGN d 503     -17.944  52.493 174.333  0.00  0.00    -0.326 OA
BRANCH   8   9
ATOM      9  C4  SGN d 503     -18.158  53.795 173.897  0.00  0.00     0.180 C 
ATOM     10  C3  SGN d 503     -18.595  53.750 172.434  0.00  0.00     0.210 C 
ATOM     11  C2  SGN d 503     -19.039  55.143 172.025  0.00  0.00     0.207 C 
ATOM     12  O3  SGN d 503     -17.484  53.350 171.655  0.00  0.00    -0.218 OA
ATOM     13  C1  SGN d 503     -20.098  55.704 172.985  0.00  0.00     0.263 C 
ATOM     14  O5  SGN d 503     -19.591  55.702 174.297  0.00  0.00    -0.327 OA
ATOM     15  C5  SGN d 503     -19.262  54.430 174.760  0.00  0.00     0.179 C 
BRANCH  11  16
ATOM     16  N   SGN d 503     -19.531  55.162 170.659  0.00  0.00    -0.162 NA
BRANCH  16  17
ATOM     17  S1  SGN d 503     -19.092  56.415 169.718  0.00  0.00     0.227 S 
ATOM     18  O1S SGN d 503     -20.044  57.476 169.987  0.00  0.00    -0.577 OA
ATOM     19  O2S SGN d 503     -17.727  56.798 170.075  0.00  0.00    -0.577 OA
ATOM     20  O3S SGN d 503     -19.219  55.884 168.379  0.00  0.00    -0.577 OA
ENDBRANCH  16  17
ENDBRANCH  11  16
BRANCH  13  21
ATOM     21  O4  IDS d 502     -21.292  54.976 172.896  0.00  0.00    -0.326 OA
BRANCH  21  22
ATOM     22  C4  IDS d 502     -22.458  55.730 173.109  0.00  0.00     0.189 C 
ATOM     23  C3  IDS d 502     -23.138  56.022 171.758  0.00  0.00     0.216 C 
ATOM     24  O3  IDS d 502     -24.191  56.944 171.964  0.00  0.00    -0.218 OA
ATOM     25  C2  IDS d 502     -23.735  54.746 171.158  0.00  0.00     0.229 C 
ATOM     26  C1  IDS d 502     -24.562  53.970 172.178  0.00  0.00     0.301 C 
ATOM     27  O1  IDS d 502     -25.760  54.670 172.385  0.00  0.00    -0.187 OA
ATOM     28  O5  IDS d 502     -23.844  53.765 173.369  0.00  0.00    -0.316 OA
ATOM     29  C5  IDS d 502     -23.410  54.948 174.011  0.00  0.00     0.234 C 
BRANCH  25  30
ATOM     30  O2  IDS d 502     -22.665  53.933 170.757  0.00  0.00    -0.232 OA
BRANCH  30  31
ATOM     31  S   IDS d 502     -22.509  53.147 169.414  0.00  0.00     0.252 S 
ATOM     32  O3S IDS d 502     -22.027  54.123 168.471  0.00  0.00    -0.572 OA
ATOM     33  O2S IDS d 502     -23.824  52.636 169.102  0.00  0.00    -0.572 OA
ATOM     34  O1S IDS d 502     -21.555  52.098 169.642  0.00  0.00    -0.572 OA
ENDBRANCH  30  31
ENDBRANCH  25  30
BRANCH  29  35
ATOM     35  C6  IDS d 502     -22.849  54.636 175.391  0.00  0.00     0.216 C 
ATOM     36  O61 IDS d 502     -22.780  53.502 175.798  0.00  0.00    -0.646 OA
ATOM     37  O62 IDS d 502     -22.449  55.524 176.119  0.00  0.00    -0.646 OA
ENDBRANCH  29  35
ENDBRANCH  21  22
ENDBRANCH  13  21
BRANCH  15  38
ATOM     38  C6  SGN d 503     -18.881  54.639 176.201  0.00  0.00     0.198 C 
BRANCH  38  39
ATOM     39  O6  SGN d 503     -17.517  54.997 176.233  0.00  0.00    -0.235 OA
BRANCH  39  40
ATOM     40  S2  SGN d 503     -16.965  56.447 176.264  0.00  0.00     0.252 S 
ATOM     41  O4S SGN d 503     -16.405  56.740 174.988  0.00  0.00    -0.572 OA
ATOM     42  O5S SGN d 503     -18.087  57.325 176.582  0.00  0.00    -0.572 OA
ATOM     43  O6S SGN d 503     -15.947  56.398 177.240  0.00  0.00    -0.572 OA
ENDBRANCH  39  40
ENDBRANCH  38  39
ENDBRANCH  15  38
ENDBRANCH   8   9
ENDBRANCH   5   8
BRANCH   1  44
ATOM     44  O2  IDS d 504     -15.159  51.333 176.240  0.00  0.00    -0.233 OA
BRANCH  44  45
ATOM     45  S   IDS d 504     -14.708  51.884 177.605  0.00  0.00     0.252 S 
ATOM     46  O3S IDS d 504     -13.304  51.708 177.589  0.00  0.00    -0.572 OA
ATOM     47  O2S IDS d 504     -15.397  51.143 178.621  0.00  0.00    -0.572 OA
ATOM     48  O1S IDS d 504     -15.070  53.254 177.623  0.00  0.00    -0.572 OA
ENDBRANCH  44  45
ENDBRANCH   1  44
BRANCH   4  49
ATOM     49  C6  IDS d 504     -16.094  49.911 171.617  0.00  0.00     0.216 C 
ATOM     50  O62 IDS d 504     -16.724  49.080 170.960  0.00  0.00    -0.646 OA
ATOM     51  O61 IDS d 504     -15.081  50.387 171.120  0.00  0.00    -0.646 OA
ENDBRANCH   4  49
BRANCH   7  52
ATOM     52  O4  IDS d 504     -14.868  49.148 174.305  0.00  0.00    -0.326 OA
BRANCH  52  53
ATOM     53  C1  SGN d 505     -14.479  47.852 174.671  0.00  0.00     0.263 C 
ATOM     54  C2  SGN d 505     -13.124  47.849 175.352  0.00  0.00     0.207 C 
ATOM     55  C3  SGN d 505     -12.016  48.264 174.365  0.00  0.00     0.210 C 
ATOM     56  C4  SGN d 505     -12.105  47.255 173.183  0.00  0.00     0.180 C 
ATOM     57  O3  SGN d 505     -10.760  48.153 175.023  0.00  0.00    -0.218 OA
ATOM     58  C5  SGN d 505     -13.477  47.391 172.607  0.00  0.00     0.179 C 
ATOM     59  O5  SGN d 505     -14.437  47.019 173.547  0.00  0.00    -0.327 OA
BRANCH  54  60
ATOM     60  N   SGN d 505     -13.199  48.651 176.595  0.00  0.00    -0.162 NA
BRANCH  60  61
ATOM     61  S1  SGN d 505     -13.718  47.875 177.986  0.00  0.00     0.227 S 
ATOM     62  O3S SGN d 505     -13.225  46.545 177.928  0.00  0.00    -0.577 OA
ATOM     63  O1S SGN d 505     -13.208  48.618 179.119  0.00  0.00    -0.577 OA
ATOM     64  O2S SGN d 505     -15.160  47.904 177.912  0.00  0.00    -0.577 OA
ENDBRANCH  60  61
ENDBRANCH  54  60
BRANCH  56  65
ATOM     65  O4  SGN d 505     -11.213  47.489 172.114  0.00  0.00    -0.326 OA
BRANCH  65  66
ATOM     66  C1  IDS d 506     -10.016  46.808 171.950  0.00  0.00     0.269 C 
ATOM     67  C2  IDS d 506      -9.320  47.324 170.683  0.00  0.00     0.226 C 
ATOM     68  C3  IDS d 506      -8.151  46.417 170.210  0.00  0.00     0.219 C 
ATOM     69  O3  IDS d 506      -6.982  46.761 170.949  0.00  0.00    -0.218 OA
ATOM     70  C4  IDS d 506      -8.422  44.908 170.395  0.00  0.00     0.223 C 
ATOM     71  O4  IDS d 506      -9.208  44.488 169.305  0.00  0.00    -0.217 OA
ATOM     72  C5  IDS d 506      -9.173  44.649 171.705  0.00  0.00     0.237 C 
ATOM     73  O5  IDS d 506     -10.309  45.446 171.770  0.00  0.00    -0.318 OA
BRANCH  67  74
ATOM     74  O2  IDS d 506     -10.243  47.393 169.614  0.00  0.00    -0.233 OA
BRANCH  74  75
ATOM     75  S   IDS d 506     -10.497  48.597 168.608  0.00  0.00     0.252 S 
ATOM     76  O1S IDS d 506     -11.611  49.309 169.155  0.00  0.00    -0.572 OA
ATOM     77  O2S IDS d 506      -9.319  49.418 168.588  0.00  0.00    -0.572 OA
ATOM     78  O3S IDS d 506     -10.786  47.981 167.331  0.00  0.00    -0.572 OA
ENDBRANCH  74  75
ENDBRANCH  67  74
BRANCH  72  79
ATOM     79  C6  IDS d 506      -9.550  43.208 171.997  0.00  0.00     0.217 C 
ATOM     80  O61 IDS d 506     -10.727  42.897 172.119  0.00  0.00    -0.646 OA
ATOM     81  O62 IDS d 506      -8.711  42.335 172.132  0.00  0.00    -0.646 OA
ENDBRANCH  72  79
ENDBRANCH  65  66
ENDBRANCH  56  65
BRANCH  58  82
ATOM     82  C6  SGN d 505     -13.695  46.516 171.416  0.00  0.00     0.198 C 
BRANCH  82  83
ATOM     83  O6  SGN d 505     -13.938  47.387 170.365  0.00  0.00    -0.235 OA
BRANCH  83  84
ATOM     84  S2  SGN d 505     -14.623  47.069 169.044  0.00  0.00     0.252 S 
ATOM     85  O6S SGN d 505     -14.713  48.320 168.302  0.00  0.00    -0.572 OA
ATOM     86  O4S SGN d 505     -13.760  46.102 168.405  0.00  0.00    -0.572 OA
ATOM     87  O5S SGN d 505     -15.917  46.558 169.422  0.00  0.00    -0.572 OA
ENDBRANCH  83  84
ENDBRANCH  82  83
ENDBRANCH  58  82
ENDBRANCH  52  53
ENDBRANCH   7  52
TORSDOF 27

ENDMDL
MODEL 73
REMARK VINA RESULT:       5.4      4.891      8.872
REMARK  27 active torsions:
REMARK  status: ('A' for Active; 'I' for Inactive)
REMARK    1  A    between atoms: C2_1  and  O2_78 
REMARK    2  A    between atoms: C1_3  and  O4_50 
REMARK    3  A    between atoms: O4_5  and  C4_58 
REMARK    4  A    between atoms: O4_5  and  C1_27 
REMARK    5  A    between atoms: C2_6  and  N_39 
REMARK    6  A    between atoms: S1_9  and  N_39 
REMARK    7  A    between atoms: C6_10  and  C5_52 
REMARK    8  A    between atoms: C2_12  and  N_73 
REMARK    9  A    between atoms: C2_19  and  O2_24 
REMARK   10  A    between atoms: C2_21  and  O2_44 
REMARK   11  A    between atoms: S2_23  and  O6_65 
REMARK   12  A    between atoms: O2_24  and  S_54 
REMARK   13  A    between atoms: C1_28  and  O4_60 
REMARK   14  A    between atoms: C5_29  and  C6_38 
REMARK   15  A    between atoms: C5_30  and  C6_33 
REMARK   16  A    between atoms: S1_34  and  N_73 
REMARK   17  A    between atoms: C5_41  and  C6_46 
REMARK   18  A    between atoms: S_43  and  O2_44 
REMARK   19  A    between atoms: C6_46  and  O6_72 
REMARK   20  A    between atoms: O4_50  and  C4_71 
REMARK   21  A    between atoms: C1_56  and  O4_64 
REMARK   22  A    between atoms: O4_60  and  C4_83 
REMARK   23  A    between atoms: C4_61  and  O4_64 
REMARK   24  A    between atoms: S2_63  and  O6_72 
REMARK   25  A    between atoms: O6_65  and  C6_67 
REMARK   26  A    between atoms: C6_67  and  C5_75 
REMARK   27  A    between atoms: S_76  and  O2_78 
ROOT
ATOM      1  C2  IDS d 504     -17.546  51.122 176.462  0.00  0.00     0.226 C 
ATOM      2  O3  IDS d 504     -16.178  52.160 178.212  0.00  0.00    -0.218 OA
ATOM      3  O5  IDS d 504     -15.600  50.691 175.061  0.00  0.00    -0.318 OA
ATOM      4  C5  IDS d 504     -14.847  51.723 175.655  0.00  0.00     0.234 C 
ATOM      5  C1  IDS d 504     -16.569  50.093 175.929  0.00  0.00     0.269 C 
ATOM      6  C3  IDS d 504     -16.826  52.428 176.975  0.00  0.00     0.216 C 
ATOM      7  C4  IDS d 504     -15.756  52.900 176.003  0.00  0.00     0.189 C 
ENDROOT
BRANCH   5   8
ATOM      8  O4  SGN d 503     -15.983  49.439 177.016  0.00  0.00    -0.326 OA
BRANCH   8   9
ATOM      9  C4  SGN d 503     -15.707  48.095 176.787  0.00  0.00     0.180 C 
ATOM     10  C3  SGN d 503     -16.930  47.455 176.134  0.00  0.00     0.210 C 
ATOM     11  C2  SGN d 503     -16.553  46.054 175.686  0.00  0.00     0.207 C 
ATOM     12  O3  SGN d 503     -17.962  47.390 177.100  0.00  0.00    -0.218 OA
ATOM     13  C1  SGN d 503     -15.295  46.061 174.805  0.00  0.00     0.263 C 
ATOM     14  O5  SGN d 503     -14.237  46.668 175.503  0.00  0.00    -0.327 OA
ATOM     15  C5  SGN d 503     -14.491  47.994 175.850  0.00  0.00     0.179 C 
BRANCH  11  16
ATOM     16  N   SGN d 503     -17.654  45.406 174.996  0.00  0.00    -0.162 NA
BRANCH  16  17
ATOM     17  S1  SGN d 503     -18.428  44.204 175.774  0.00  0.00     0.227 S 
ATOM     18  O1S SGN d 503     -17.648  43.926 176.965  0.00  0.00    -0.577 OA
ATOM     19  O2S SGN d 503     -19.778  44.664 176.096  0.00  0.00    -0.577 OA
ATOM     20  O3S SGN d 503     -18.392  43.116 174.823  0.00  0.00    -0.577 OA
ENDBRANCH  16  17
ENDBRANCH  11  16
BRANCH  13  21
ATOM     21  O4  IDS d 502     -15.542  46.705 173.585  0.00  0.00    -0.326 OA
BRANCH  21  22
ATOM     22  C4  IDS d 502     -15.139  45.985 172.448  0.00  0.00     0.189 C 
ATOM     23  C3  IDS d 502     -16.381  45.535 171.655  0.00  0.00     0.216 C 
ATOM     24  O3  IDS d 502     -15.976  44.646 170.632  0.00  0.00    -0.218 OA
ATOM     25  C2  IDS d 502     -17.075  46.731 170.998  0.00  0.00     0.229 C 
ATOM     26  C1  IDS d 502     -16.086  47.625 170.256  0.00  0.00     0.301 C 
ATOM     27  O1  IDS d 502     -15.694  46.957 169.087  0.00  0.00    -0.187 OA
ATOM     28  O5  IDS d 502     -14.996  47.970 171.074  0.00  0.00    -0.316 OA
ATOM     29  C5  IDS d 502     -14.258  46.872 171.571  0.00  0.00     0.234 C 
BRANCH  25  30
ATOM     30  O2  IDS d 502     -17.662  47.488 172.023  0.00  0.00    -0.232 OA
BRANCH  30  31
ATOM     31  S   IDS d 502     -18.858  48.489 171.910  0.00  0.00     0.252 S 
ATOM     32  O3S IDS d 502     -18.277  49.784 172.156  0.00  0.00    -0.572 OA
ATOM     33  O2S IDS d 502     -19.812  48.079 172.913  0.00  0.00    -0.572 OA
ATOM     34  O1S IDS d 502     -19.383  48.377 170.577  0.00  0.00    -0.572 OA
ENDBRANCH  30  31
ENDBRANCH  25  30
BRANCH  29  35
ATOM     35  C6  IDS d 502     -12.979  47.345 172.248  0.00  0.00     0.216 C 
ATOM     36  O61 IDS d 502     -12.249  46.571 172.818  0.00  0.00    -0.646 OA
ATOM     37  O62 IDS d 502     -12.657  48.517 172.228  0.00  0.00    -0.646 OA
ENDBRANCH  29  35
ENDBRANCH  21  22
ENDBRANCH  13  21
BRANCH  15  38
ATOM     38  C6  SGN d 503     -13.201  48.483 176.450  0.00  0.00     0.198 C 
BRANCH  38  39
ATOM     39  O6  SGN d 503     -12.335  48.811 175.386  0.00  0.00    -0.235 OA
BRANCH  39  40
ATOM     40  S2  SGN d 503     -10.785  48.812 175.451  0.00  0.00     0.252 S 
ATOM     41  O4S SGN d 503     -10.390  49.338 176.713  0.00  0.00    -0.572 OA
ATOM     42  O5S SGN d 503     -10.348  47.430 175.275  0.00  0.00    -0.572 OA
ATOM     43  O6S SGN d 503     -10.406  49.695 174.418  0.00  0.00    -0.572 OA
ENDBRANCH  39  40
ENDBRANCH  38  39
ENDBRANCH  15  38
ENDBRANCH   8   9
ENDBRANCH   5   8
BRANCH   1  44
ATOM     44  O2  IDS d 504     -18.474  51.438 175.426  0.00  0.00    -0.233 OA
BRANCH  44  45
ATOM     45  S   IDS d 504     -19.977  51.107 175.404  0.00  0.00     0.252 S 
ATOM     46  O3S IDS d 504     -20.362  51.391 174.072  0.00  0.00    -0.572 OA
ATOM     47  O2S IDS d 504     -20.614  51.917 176.401  0.00  0.00    -0.572 OA
ATOM     48  O1S IDS d 504     -20.087  49.727 175.704  0.00  0.00    -0.572 OA
ENDBRANCH  44  45
ENDBRANCH   1  44
BRANCH   4  49
ATOM     49  C6  IDS d 504     -13.631  52.073 174.782  0.00  0.00     0.216 C 
ATOM     50  O62 IDS d 504     -13.429  51.497 173.711  0.00  0.00    -0.646 OA
ATOM     51  O61 IDS d 504     -12.823  52.921 175.138  0.00  0.00    -0.646 OA
ENDBRANCH   4  49
BRANCH   7  52
ATOM     52  O4  IDS d 504     -16.377  53.402 174.828  0.00  0.00    -0.326 OA
BRANCH  52  53
ATOM     53  C1  SGN d 505     -16.661  54.773 174.878  0.00  0.00     0.263 C 
ATOM     54  C2  SGN d 505     -17.621  55.184 173.779  0.00  0.00     0.207 C 
ATOM     55  C3  SGN d 505     -16.964  55.029 172.394  0.00  0.00     0.210 C 
ATOM     56  C4  SGN d 505     -15.680  55.907 172.437  0.00  0.00     0.180 C 
ATOM     57  O3  SGN d 505     -17.867  55.516 171.409  0.00  0.00    -0.218 OA
ATOM     58  C5  SGN d 505     -14.833  55.370 173.545  0.00  0.00     0.179 C 
ATOM     59  O5  SGN d 505     -15.482  55.520 174.770  0.00  0.00    -0.327 OA
BRANCH  54  60
ATOM     60  N   SGN d 505     -18.904  54.465 173.956  0.00  0.00    -0.162 NA
BRANCH  60  61
ATOM     61  S1  SGN d 505     -20.217  55.348 174.508  0.00  0.00     0.227 S 
ATOM     62  O3S SGN d 505     -21.364  54.849 173.836  0.00  0.00    -0.577 OA
ATOM     63  O1S SGN d 505     -20.285  55.181 175.944  0.00  0.00    -0.577 OA
ATOM     64  O2S SGN d 505     -19.935  56.712 174.125  0.00  0.00    -0.577 OA
ENDBRANCH  60  61
ENDBRANCH  54  60
BRANCH  56  65
ATOM     65  O4  SGN d 505     -14.872  55.863 171.279  0.00  0.00    -0.326 OA
BRANCH  65  66
ATOM     66  C1  IDS d 506     -15.125  56.610 170.139  0.00  0.00     0.269 C 
ATOM     67  C2  IDS d 506     -13.839  56.694 169.304  0.00  0.00     0.226 C 
ATOM     68  C3  IDS d 506     -13.900  57.773 168.188  0.00  0.00     0.219 C 
ATOM     69  O3  IDS d 506     -14.558  57.215 167.054  0.00  0.00    -0.218 OA
ATOM     70  C4  IDS d 506     -14.647  59.058 168.606  0.00  0.00     0.223 C 
ATOM     71  O4  IDS d 506     -13.742  59.848 169.341  0.00  0.00    -0.217 OA
ATOM     72  C5  IDS d 506     -15.863  58.719 169.475  0.00  0.00     0.237 C 
ATOM     73  O5  IDS d 506     -15.479  57.910 170.538  0.00  0.00    -0.318 OA
BRANCH  67  74
ATOM     74  O2  IDS d 506     -12.742  57.023 170.133  0.00  0.00    -0.233 OA
BRANCH  74  75
ATOM     75  S   IDS d 506     -11.192  56.832 169.837  0.00  0.00     0.252 S 
ATOM     76  O1S IDS d 506     -10.685  56.112 170.964  0.00  0.00    -0.572 OA
ATOM     77  O2S IDS d 506     -11.060  56.062 168.632  0.00  0.00    -0.572 OA
ATOM     78  O3S IDS d 506     -10.652  58.169 169.723  0.00  0.00    -0.572 OA
ENDBRANCH  74  75
ENDBRANCH  67  74
BRANCH  72  79
ATOM     79  C6  IDS d 506     -16.669  59.893 170.001  0.00  0.00     0.217 C 
ATOM     80  O61 IDS d 506     -16.573  60.223 171.175  0.00  0.00    -0.646 OA
ATOM     81  O62 IDS d 506     -17.434  60.521 169.291  0.00  0.00    -0.646 OA
ENDBRANCH  72  79
ENDBRANCH  65  66
ENDBRANCH  56  65
BRANCH  58  82
ATOM     82  C6  SGN d 505     -13.526  56.082 173.674  0.00  0.00     0.198 C 
BRANCH  82  83
ATOM     83  O6  SGN d 505     -13.783  57.167 174.499  0.00  0.00    -0.235 OA
BRANCH  83  84
ATOM     84  S2  SGN d 505     -13.697  58.642 174.135  0.00  0.00     0.252 S 
ATOM     85  O6S SGN d 505     -15.021  59.209 174.351  0.00  0.00    -0.572 OA
ATOM     86  O4S SGN d 505     -12.704  59.184 175.034  0.00  0.00    -0.572 OA
ATOM     87  O5S SGN d 505     -13.313  58.650 172.745  0.00  0.00    -0.572 OA
ENDBRANCH  83  84
ENDBRANCH  82  83
ENDBRANCH  58  82
ENDBRANCH  52  53
ENDBRANCH   7  52
TORSDOF 27

ENDMDL
MODEL 74
REMARK VINA RESULT:       5.4      4.595      8.167
REMARK  27 active torsions:
REMARK  status: ('A' for Active; 'I' for Inactive)
REMARK    1  A    between atoms: C2_1  and  O2_78 
REMARK    2  A    between atoms: C1_3  and  O4_50 
REMARK    3  A    between atoms: O4_5  and  C4_58 
REMARK    4  A    between atoms: O4_5  and  C1_27 
REMARK    5  A    between atoms: C2_6  and  N_39 
REMARK    6  A    between atoms: S1_9  and  N_39 
REMARK    7  A    between atoms: C6_10  and  C5_52 
REMARK    8  A    between atoms: C2_12  and  N_73 
REMARK    9  A    between atoms: C2_19  and  O2_24 
REMARK   10  A    between atoms: C2_21  and  O2_44 
REMARK   11  A    between atoms: S2_23  and  O6_65 
REMARK   12  A    between atoms: O2_24  and  S_54 
REMARK   13  A    between atoms: C1_28  and  O4_60 
REMARK   14  A    between atoms: C5_29  and  C6_38 
REMARK   15  A    between atoms: C5_30  and  C6_33 
REMARK   16  A    between atoms: S1_34  and  N_73 
REMARK   17  A    between atoms: C5_41  and  C6_46 
REMARK   18  A    between atoms: S_43  and  O2_44 
REMARK   19  A    between atoms: C6_46  and  O6_72 
REMARK   20  A    between atoms: O4_50  and  C4_71 
REMARK   21  A    between atoms: C1_56  and  O4_64 
REMARK   22  A    between atoms: O4_60  and  C4_83 
REMARK   23  A    between atoms: C4_61  and  O4_64 
REMARK   24  A    between atoms: S2_63  and  O6_72 
REMARK   25  A    between atoms: O6_65  and  C6_67 
REMARK   26  A    between atoms: C6_67  and  C5_75 
REMARK   27  A    between atoms: S_76  and  O2_78 
ROOT
ATOM      1  C2  IDS d 504     -16.508  51.240 175.752  0.00  0.00     0.226 C 
ATOM      2  O3  IDS d 504     -18.369  49.747 175.185  0.00  0.00    -0.218 OA
ATOM      3  O5  IDS d 504     -15.959  51.605 173.407  0.00  0.00    -0.318 OA
ATOM      4  C5  IDS d 504     -16.551  50.392 173.000  0.00  0.00     0.234 C 
ATOM      5  C1  IDS d 504     -16.553  52.189 174.571  0.00  0.00     0.269 C 
ATOM      6  C3  IDS d 504     -16.959  49.778 175.368  0.00  0.00     0.216 C 
ATOM      7  C4  IDS d 504     -16.328  49.318 174.063  0.00  0.00     0.189 C 
ENDROOT
BRANCH   5   8
ATOM      8  O4  SGN d 503     -17.882  52.568 174.362  0.00  0.00    -0.326 OA
BRANCH   8   9
ATOM      9  C4  SGN d 503     -18.055  53.479 173.326  0.00  0.00     0.180 C 
ATOM     10  C3  SGN d 503     -19.439  53.266 172.719  0.00  0.00     0.210 C 
ATOM     11  C2  SGN d 503     -19.712  54.397 171.744  0.00  0.00     0.207 C 
ATOM     12  O3  SGN d 503     -19.434  52.029 172.033  0.00  0.00    -0.218 OA
ATOM     13  C1  SGN d 503     -19.514  55.771 172.400  0.00  0.00     0.263 C 
ATOM     14  O5  SGN d 503     -18.211  55.859 172.921  0.00  0.00    -0.327 OA
ATOM     15  C5  SGN d 503     -17.940  54.903 173.898  0.00  0.00     0.179 C 
BRANCH  11  16
ATOM     16  N   SGN d 503     -21.044  54.294 171.173  0.00  0.00    -0.162 NA
BRANCH  16  17
ATOM     17  S1  SGN d 503     -21.162  54.163 169.555  0.00  0.00     0.227 S 
ATOM     18  O1S SGN d 503     -19.992  54.823 169.009  0.00  0.00    -0.577 OA
ATOM     19  O2S SGN d 503     -21.200  52.741 169.214  0.00  0.00    -0.577 OA
ATOM     20  O3S SGN d 503     -22.387  54.869 169.254  0.00  0.00    -0.577 OA
ENDBRANCH  16  17
ENDBRANCH  11  16
BRANCH  13  21
ATOM     21  O4  IDS d 502     -20.478  55.997 173.391  0.00  0.00    -0.326 OA
BRANCH  21  22
ATOM     22  C4  IDS d 502     -20.669  57.347 173.729  0.00  0.00     0.189 C 
ATOM     23  C3  IDS d 502     -21.870  57.911 172.946  0.00  0.00     0.216 C 
ATOM     24  O3  IDS d 502     -21.928  59.311 173.140  0.00  0.00    -0.218 OA
ATOM     25  C2  IDS d 502     -23.185  57.308 173.450  0.00  0.00     0.229 C 
ATOM     26  C1  IDS d 502     -23.286  57.354 174.971  0.00  0.00     0.301 C 
ATOM     27  O1  IDS d 502     -23.523  58.685 175.347  0.00  0.00    -0.187 OA
ATOM     28  O5  IDS d 502     -22.137  56.818 175.577  0.00  0.00    -0.316 OA
ATOM     29  C5  IDS d 502     -20.928  57.463 175.230  0.00  0.00     0.234 C 
BRANCH  25  30
ATOM     30  O2  IDS d 502     -23.204  55.962 173.054  0.00  0.00    -0.232 OA
BRANCH  30  31
ATOM     31  S   IDS d 502     -24.416  55.146 172.494  0.00  0.00     0.252 S 
ATOM     32  O3S IDS d 502     -24.833  55.867 171.320  0.00  0.00    -0.572 OA
ATOM     33  O2S IDS d 502     -25.402  55.131 173.549  0.00  0.00    -0.572 OA
ATOM     34  O1S IDS d 502     -23.934  53.831 172.178  0.00  0.00    -0.572 OA
ENDBRANCH  30  31
ENDBRANCH  25  30
BRANCH  29  35
ATOM     35  C6  IDS d 502     -19.783  56.965 176.101  0.00  0.00     0.216 C 
ATOM     36  O61 IDS d 502     -18.769  57.608 176.231  0.00  0.00    -0.646 OA
ATOM     37  O62 IDS d 502     -19.861  55.907 176.694  0.00  0.00    -0.646 OA
ENDBRANCH  29  35
ENDBRANCH  21  22
ENDBRANCH  13  21
BRANCH  15  38
ATOM     38  C6  SGN d 503     -16.570  55.260 174.409  0.00  0.00     0.198 C 
BRANCH  38  39
ATOM     39  O6  SGN d 503     -15.855  55.838 173.338  0.00  0.00    -0.235 OA
BRANCH  39  40
ATOM     40  S2  SGN d 503     -14.666  55.182 172.589  0.00  0.00     0.252 S 
ATOM     41  O4S SGN d 503     -15.191  54.308 171.595  0.00  0.00    -0.572 OA
ATOM     42  O5S SGN d 503     -13.880  56.264 172.003  0.00  0.00    -0.572 OA
ATOM     43  O6S SGN d 503     -14.007  54.438 173.590  0.00  0.00    -0.572 OA
ENDBRANCH  39  40
ENDBRANCH  38  39
ENDBRANCH  15  38
ENDBRANCH   8   9
ENDBRANCH   5   8
BRANCH   1  44
ATOM     44  O2  IDS d 504     -15.179  51.232 176.271  0.00  0.00    -0.233 OA
BRANCH  44  45
ATOM     45  S   IDS d 504     -14.716  51.803 177.623  0.00  0.00     0.252 S 
ATOM     46  O3S IDS d 504     -13.311  51.638 177.592  0.00  0.00    -0.572 OA
ATOM     47  O2S IDS d 504     -15.387  51.069 178.656  0.00  0.00    -0.572 OA
ATOM     48  O1S IDS d 504     -15.089  53.170 177.629  0.00  0.00    -0.572 OA
ENDBRANCH  44  45
ENDBRANCH   1  44
BRANCH   4  49
ATOM     49  C6  IDS d 504     -16.085  50.015 171.584  0.00  0.00     0.216 C 
ATOM     50  O62 IDS d 504     -16.740  49.242 170.882  0.00  0.00    -0.646 OA
ATOM     51  O61 IDS d 504     -15.041  50.460 171.125  0.00  0.00    -0.646 OA
ENDBRANCH   4  49
BRANCH   7  52
ATOM     52  O4  IDS d 504     -14.938  49.108 174.261  0.00  0.00    -0.326 OA
BRANCH  52  53
ATOM     53  C1  SGN d 505     -14.607  47.789 174.602  0.00  0.00     0.263 C 
ATOM     54  C2  SGN d 505     -13.284  47.719 175.339  0.00  0.00     0.207 C 
ATOM     55  C3  SGN d 505     -12.121  48.127 174.413  0.00  0.00     0.210 C 
ATOM     56  C4  SGN d 505     -12.192  47.158 173.197  0.00  0.00     0.180 C 
ATOM     57  O3  SGN d 505     -10.900  47.953 175.119  0.00  0.00    -0.218 OA
ATOM     58  C5  SGN d 505     -13.532  47.358 172.568  0.00  0.00     0.179 C 
ATOM     59  O5  SGN d 505     -14.544  46.990 173.454  0.00  0.00    -0.327 OA
BRANCH  54  60
ATOM     60  N   SGN d 505     -13.386  48.485 176.603  0.00  0.00    -0.162 NA
BRANCH  60  61
ATOM     61  S1  SGN d 505     -13.935  47.668 177.959  0.00  0.00     0.227 S 
ATOM     62  O3S SGN d 505     -13.473  46.330 177.852  0.00  0.00    -0.577 OA
ATOM     63  O1S SGN d 505     -13.415  48.354 179.123  0.00  0.00    -0.577 OA
ATOM     64  O2S SGN d 505     -15.375  47.735 177.877  0.00  0.00    -0.577 OA
ENDBRANCH  60  61
ENDBRANCH  54  60
BRANCH  56  65
ATOM     65  O4  SGN d 505     -11.247  47.394 172.174  0.00  0.00    -0.326 OA
BRANCH  65  66
ATOM     66  C1  IDS d 506     -10.052  46.701 172.059  0.00  0.00     0.269 C 
ATOM     67  C2  IDS d 506      -9.265  47.262 170.865  0.00  0.00     0.226 C 
ATOM     68  C3  IDS d 506      -8.080  46.357 170.429  0.00  0.00     0.219 C 
ATOM     69  O3  IDS d 506      -6.959  46.648 171.259  0.00  0.00    -0.218 OA
ATOM     70  C4  IDS d 506      -8.384  44.846 170.527  0.00  0.00     0.223 C 
ATOM     71  O4  IDS d 506      -9.101  44.488 169.369  0.00  0.00    -0.217 OA
ATOM     72  C5  IDS d 506      -9.224  44.541 171.772  0.00  0.00     0.237 C 
ATOM     73  O5  IDS d 506     -10.351  45.353 171.797  0.00  0.00    -0.318 OA
BRANCH  67  74
ATOM     74  O2  IDS d 506     -10.114  47.394 169.742  0.00  0.00    -0.233 OA
BRANCH  74  75
ATOM     75  S   IDS d 506      -9.939  48.346 168.482  0.00  0.00     0.252 S 
ATOM     76  O1S IDS d 506     -11.249  48.859 168.219  0.00  0.00    -0.572 OA
ATOM     77  O2S IDS d 506      -9.035  49.401 168.842  0.00  0.00    -0.572 OA
ATOM     78  O3S IDS d 506      -9.436  47.498 167.423  0.00  0.00    -0.572 OA
ENDBRANCH  74  75
ENDBRANCH  67  74
BRANCH  72  79
ATOM     79  C6  IDS d 506      -9.640  43.096 171.972  0.00  0.00     0.217 C 
ATOM     80  O61 IDS d 506      -8.823  42.272 172.360  0.00  0.00    -0.646 OA
ATOM     81  O62 IDS d 506     -10.774  42.712 171.744  0.00  0.00    -0.646 OA
ENDBRANCH  72  79
ENDBRANCH  65  66
ENDBRANCH  56  65
BRANCH  58  82
ATOM     82  C6  SGN d 505     -13.727  46.528 171.341  0.00  0.00     0.198 C 
BRANCH  82  83
ATOM     83  O6  SGN d 505     -13.947  47.438 170.318  0.00  0.00    -0.235 OA
BRANCH  83  84
ATOM     84  S2  SGN d 505     -14.616  47.173 168.978  0.00  0.00     0.252 S 
ATOM     85  O6S SGN d 505     -13.766  46.233 168.259  0.00  0.00    -0.572 OA
ATOM     86  O4S SGN d 505     -15.906  46.614 169.314  0.00  0.00    -0.572 OA
ATOM     87  O5S SGN d 505     -14.673  48.465 168.339  0.00  0.00    -0.572 OA
ENDBRANCH  83  84
ENDBRANCH  82  83
ENDBRANCH  58  82
ENDBRANCH  52  53
ENDBRANCH   7  52
TORSDOF 27

ENDMDL
MODEL 75
REMARK VINA RESULT:       5.4      4.056      9.414
REMARK  27 active torsions:
REMARK  status: ('A' for Active; 'I' for Inactive)
REMARK    1  A    between atoms: C2_1  and  O2_78 
REMARK    2  A    between atoms: C1_3  and  O4_50 
REMARK    3  A    between atoms: O4_5  and  C4_58 
REMARK    4  A    between atoms: O4_5  and  C1_27 
REMARK    5  A    between atoms: C2_6  and  N_39 
REMARK    6  A    between atoms: S1_9  and  N_39 
REMARK    7  A    between atoms: C6_10  and  C5_52 
REMARK    8  A    between atoms: C2_12  and  N_73 
REMARK    9  A    between atoms: C2_19  and  O2_24 
REMARK   10  A    between atoms: C2_21  and  O2_44 
REMARK   11  A    between atoms: S2_23  and  O6_65 
REMARK   12  A    between atoms: O2_24  and  S_54 
REMARK   13  A    between atoms: C1_28  and  O4_60 
REMARK   14  A    between atoms: C5_29  and  C6_38 
REMARK   15  A    between atoms: C5_30  and  C6_33 
REMARK   16  A    between atoms: S1_34  and  N_73 
REMARK   17  A    between atoms: C5_41  and  C6_46 
REMARK   18  A    between atoms: S_43  and  O2_44 
REMARK   19  A    between atoms: C6_46  and  O6_72 
REMARK   20  A    between atoms: O4_50  and  C4_71 
REMARK   21  A    between atoms: C1_56  and  O4_64 
REMARK   22  A    between atoms: O4_60  and  C4_83 
REMARK   23  A    between atoms: C4_61  and  O4_64 
REMARK   24  A    between atoms: S2_63  and  O6_72 
REMARK   25  A    between atoms: O6_65  and  C6_67 
REMARK   26  A    between atoms: C6_67  and  C5_75 
REMARK   27  A    between atoms: S_76  and  O2_78 
ROOT
ATOM      1  C2  IDS d 504     -21.717  49.809 173.881  0.00  0.00     0.226 C 
ATOM      2  O3  IDS d 504     -21.790  49.125 171.527  0.00  0.00    -0.218 OA
ATOM      3  O5  IDS d 504     -19.535  50.859 173.609  0.00  0.00    -0.318 OA
ATOM      4  C5  IDS d 504     -19.204  50.061 172.495  0.00  0.00     0.234 C 
ATOM      5  C1  IDS d 504     -20.937  51.103 173.764  0.00  0.00     0.269 C 
ATOM      6  C3  IDS d 504     -21.284  48.745 172.801  0.00  0.00     0.216 C 
ATOM      7  C4  IDS d 504     -19.772  48.654 172.673  0.00  0.00     0.189 C 
ENDROOT
BRANCH   5   8
ATOM      8  O4  SGN d 503     -21.471  51.843 172.704  0.00  0.00    -0.326 OA
BRANCH   8   9
ATOM      9  C4  SGN d 503     -21.391  53.220 172.878  0.00  0.00     0.180 C 
ATOM     10  C3  SGN d 503     -21.342  53.517 174.375  0.00  0.00     0.210 C 
ATOM     11  C2  SGN d 503     -21.034  54.992 174.560  0.00  0.00     0.207 C 
ATOM     12  O3  SGN d 503     -22.611  53.218 174.925  0.00  0.00    -0.218 OA
ATOM     13  C1  SGN d 503     -19.771  55.407 173.791  0.00  0.00     0.263 C 
ATOM     14  O5  SGN d 503     -19.926  55.092 172.429  0.00  0.00    -0.327 OA
ATOM     15  C5  SGN d 503     -20.110  53.730 172.195  0.00  0.00     0.179 C 
BRANCH  11  16
ATOM     16  N   SGN d 503     -20.909  55.335 175.966  0.00  0.00    -0.162 NA
BRANCH  16  17
ATOM     17  S1  SGN d 503     -21.458  56.792 176.438  0.00  0.00     0.227 S 
ATOM     18  O1S SGN d 503     -22.497  57.158 175.493  0.00  0.00    -0.577 OA
ATOM     19  O2S SGN d 503     -21.974  56.666 177.800  0.00  0.00    -0.577 OA
ATOM     20  O3S SGN d 503     -20.290  57.637 176.330  0.00  0.00    -0.577 OA
ENDBRANCH  16  17
ENDBRANCH  11  16
BRANCH  13  21
ATOM     21  O4  IDS d 502     -18.632  54.798 174.332  0.00  0.00    -0.326 OA
BRANCH  21  22
ATOM     22  C4  IDS d 502     -17.587  55.681 174.650  0.00  0.00     0.189 C 
ATOM     23  C3  IDS d 502     -17.401  55.733 176.179  0.00  0.00     0.216 C 
ATOM     24  O3  IDS d 502     -16.491  56.768 176.496  0.00  0.00    -0.218 OA
ATOM     25  C2  IDS d 502     -16.824  54.416 176.706  0.00  0.00     0.229 C 
ATOM     26  C1  IDS d 502     -15.618  53.957 175.893  0.00  0.00     0.301 C 
ATOM     27  O1  IDS d 502     -14.537  54.790 176.218  0.00  0.00    -0.187 OA
ATOM     28  O5  IDS d 502     -15.902  53.951 174.516  0.00  0.00    -0.316 OA
ATOM     29  C5  IDS d 502     -16.297  55.201 173.987  0.00  0.00     0.234 C 
BRANCH  25  30
ATOM     30  O2  IDS d 502     -17.827  53.443 176.583  0.00  0.00    -0.232 OA
BRANCH  30  31
ATOM     31  S   IDS d 502     -17.876  52.028 177.249  0.00  0.00     0.252 S 
ATOM     32  O3S IDS d 502     -17.420  51.125 176.224  0.00  0.00    -0.572 OA
ATOM     33  O2S IDS d 502     -19.252  51.822 177.637  0.00  0.00    -0.572 OA
ATOM     34  O1S IDS d 502     -16.988  52.058 178.377  0.00  0.00    -0.572 OA
ENDBRANCH  30  31
ENDBRANCH  25  30
BRANCH  29  35
ATOM     35  C6  IDS d 502     -16.359  55.147 172.467  0.00  0.00     0.216 C 
ATOM     36  O61 IDS d 502     -16.547  54.107 171.885  0.00  0.00    -0.646 OA
ATOM     37  O62 IDS d 502     -16.226  56.154 171.799  0.00  0.00    -0.646 OA
ENDBRANCH  29  35
ENDBRANCH  21  22
ENDBRANCH  13  21
BRANCH  15  38
ATOM     38  C6  SGN d 503     -20.112  53.601 170.696  0.00  0.00     0.198 C 
BRANCH  38  39
ATOM     39  O6  SGN d 503     -21.357  54.074 170.229  0.00  0.00    -0.235 OA
BRANCH  39  40
ATOM     40  S2  SGN d 503     -22.217  53.411 169.121  0.00  0.00     0.252 S 
ATOM     41  O4S SGN d 503     -22.982  52.367 169.714  0.00  0.00    -0.572 OA
ATOM     42  O5S SGN d 503     -23.064  54.456 168.555  0.00  0.00    -0.572 OA
ATOM     43  O6S SGN d 503     -21.262  52.868 168.235  0.00  0.00    -0.572 OA
ENDBRANCH  39  40
ENDBRANCH  38  39
ENDBRANCH  15  38
ENDBRANCH   8   9
ENDBRANCH   5   8
BRANCH   1  44
ATOM     44  O2  IDS d 504     -21.527  49.290 175.196  0.00  0.00    -0.233 OA
BRANCH  44  45
ATOM     45  S   IDS d 504     -22.629  48.908 176.202  0.00  0.00     0.252 S 
ATOM     46  O3S IDS d 504     -23.194  47.735 175.648  0.00  0.00    -0.572 OA
ATOM     47  O2S IDS d 504     -23.527  50.020 176.304  0.00  0.00    -0.572 OA
ATOM     48  O1S IDS d 504     -21.975  48.650 177.432  0.00  0.00    -0.572 OA
ENDBRANCH  44  45
ENDBRANCH   1  44
BRANCH   4  49
ATOM     49  C6  IDS d 504     -17.693  50.125 172.218  0.00  0.00     0.216 C 
ATOM     50  O62 IDS d 504     -17.191  49.507 171.277  0.00  0.00    -0.646 OA
ATOM     51  O61 IDS d 504     -16.948  50.779 172.937  0.00  0.00    -0.646 OA
ENDBRANCH   4  49
BRANCH   7  52
ATOM     52  O4  IDS d 504     -19.236  48.055 173.843  0.00  0.00    -0.326 OA
BRANCH  52  53
ATOM     53  C1  SGN d 505     -19.051  46.669 173.737  0.00  0.00     0.263 C 
ATOM     54  C2  SGN d 505     -18.971  46.012 175.101  0.00  0.00     0.207 C 
ATOM     55  C3  SGN d 505     -17.702  46.462 175.851  0.00  0.00     0.210 C 
ATOM     56  C4  SGN d 505     -16.510  46.084 174.924  0.00  0.00     0.180 C 
ATOM     57  O3  SGN d 505     -17.626  45.747 177.078  0.00  0.00    -0.218 OA
ATOM     58  C5  SGN d 505     -16.718  46.821 173.640  0.00  0.00     0.179 C 
ATOM     59  O5  SGN d 505     -17.887  46.386 173.015  0.00  0.00    -0.327 OA
BRANCH  54  60
ATOM     60  N   SGN d 505     -20.245  46.229 175.825  0.00  0.00    -0.162 NA
BRANCH  60  61
ATOM     61  S1  SGN d 505     -20.906  44.922 176.639  0.00  0.00     0.227 S 
ATOM     62  O3S SGN d 505     -22.224  44.747 176.141  0.00  0.00    -0.577 OA
ATOM     63  O1S SGN d 505     -20.053  43.778 176.395  0.00  0.00    -0.577 OA
ATOM     64  O2S SGN d 505     -20.917  45.316 178.028  0.00  0.00    -0.577 OA
ENDBRANCH  60  61
ENDBRANCH  54  60
BRANCH  56  65
ATOM     65  O4  SGN d 505     -15.233  46.470 175.386  0.00  0.00    -0.326 OA
BRANCH  65  66
ATOM     66  C1  IDS d 506     -14.260  45.569 175.791  0.00  0.00     0.269 C 
ATOM     67  C2  IDS d 506     -13.369  46.241 176.846  0.00  0.00     0.226 C 
ATOM     68  C3  IDS d 506     -12.053  45.463 177.126  0.00  0.00     0.219 C 
ATOM     69  O3  IDS d 506     -12.330  44.430 178.068  0.00  0.00    -0.218 OA
ATOM     70  C4  IDS d 506     -11.430  44.824 175.866  0.00  0.00     0.223 C 
ATOM     71  O4  IDS d 506     -10.708  45.833 175.199  0.00  0.00    -0.217 OA
ATOM     72  C5  IDS d 506     -12.520  44.271 174.942  0.00  0.00     0.237 C 
ATOM     73  O5  IDS d 506     -13.464  45.255 174.676  0.00  0.00    -0.318 OA
BRANCH  67  74
ATOM     74  O2  IDS d 506     -12.995  47.535 176.415  0.00  0.00    -0.233 OA
BRANCH  74  75
ATOM     75  S   IDS d 506     -12.893  48.867 177.275  0.00  0.00     0.252 S 
ATOM     76  O1S IDS d 506     -14.000  49.669 176.852  0.00  0.00    -0.572 OA
ATOM     77  O2S IDS d 506     -13.012  48.514 178.661  0.00  0.00    -0.572 OA
ATOM     78  O3S IDS d 506     -11.610  49.446 176.941  0.00  0.00    -0.572 OA
ENDBRANCH  74  75
ENDBRANCH  67  74
BRANCH  72  79
ATOM     79  C6  IDS d 506     -12.054  43.654 173.636  0.00  0.00     0.217 C 
ATOM     80  O61 IDS d 506     -11.051  42.954 173.614  0.00  0.00    -0.646 OA
ATOM     81  O62 IDS d 506     -12.642  43.843 172.586  0.00  0.00    -0.646 OA
ENDBRANCH  72  79
ENDBRANCH  65  66
ENDBRANCH  56  65
BRANCH  58  82
ATOM     82  C6  SGN d 505     -15.612  46.601 172.660  0.00  0.00     0.198 C 
BRANCH  82  83
ATOM     83  O6  SGN d 505     -15.114  47.865 172.385  0.00  0.00    -0.235 OA
BRANCH  83  84
ATOM     84  S2  SGN d 505     -13.668  48.243 172.097  0.00  0.00     0.252 S 
ATOM     85  O6S SGN d 505     -12.890  47.013 172.149  0.00  0.00    -0.572 OA
ATOM     86  O4S SGN d 505     -13.698  48.829 170.776  0.00  0.00    -0.572 OA
ATOM     87  O5S SGN d 505     -13.317  49.162 173.151  0.00  0.00    -0.572 OA
ENDBRANCH  83  84
ENDBRANCH  82  83
ENDBRANCH  58  82
ENDBRANCH  52  53
ENDBRANCH   7  52
TORSDOF 27

ENDMDL
MODEL 76
REMARK VINA RESULT:       5.5      3.263      5.917
REMARK  27 active torsions:
REMARK  status: ('A' for Active; 'I' for Inactive)
REMARK    1  A    between atoms: C2_1  and  O2_78 
REMARK    2  A    between atoms: C1_3  and  O4_50 
REMARK    3  A    between atoms: O4_5  and  C4_58 
REMARK    4  A    between atoms: O4_5  and  C1_27 
REMARK    5  A    between atoms: C2_6  and  N_39 
REMARK    6  A    between atoms: S1_9  and  N_39 
REMARK    7  A    between atoms: C6_10  and  C5_52 
REMARK    8  A    between atoms: C2_12  and  N_73 
REMARK    9  A    between atoms: C2_19  and  O2_24 
REMARK   10  A    between atoms: C2_21  and  O2_44 
REMARK   11  A    between atoms: S2_23  and  O6_65 
REMARK   12  A    between atoms: O2_24  and  S_54 
REMARK   13  A    between atoms: C1_28  and  O4_60 
REMARK   14  A    between atoms: C5_29  and  C6_38 
REMARK   15  A    between atoms: C5_30  and  C6_33 
REMARK   16  A    between atoms: S1_34  and  N_73 
REMARK   17  A    between atoms: C5_41  and  C6_46 
REMARK   18  A    between atoms: S_43  and  O2_44 
REMARK   19  A    between atoms: C6_46  and  O6_72 
REMARK   20  A    between atoms: O4_50  and  C4_71 
REMARK   21  A    between atoms: C1_56  and  O4_64 
REMARK   22  A    between atoms: O4_60  and  C4_83 
REMARK   23  A    between atoms: C4_61  and  O4_64 
REMARK   24  A    between atoms: S2_63  and  O6_72 
REMARK   25  A    between atoms: O6_65  and  C6_67 
REMARK   26  A    between atoms: C6_67  and  C5_75 
REMARK   27  A    between atoms: S_76  and  O2_78 
ROOT
ATOM      1  C2  IDS d 504     -19.614  51.523 174.708  0.00  0.00     0.226 C 
ATOM      2  O3  IDS d 504     -19.854  51.625 177.147  0.00  0.00    -0.218 OA
ATOM      3  O5  IDS d 504     -19.854  49.098 174.690  0.00  0.00    -0.318 OA
ATOM      4  C5  IDS d 504     -19.426  48.969 176.027  0.00  0.00     0.234 C 
ATOM      5  C1  IDS d 504     -20.507  50.338 174.398  0.00  0.00     0.269 C 
ATOM      6  C3  IDS d 504     -18.907  51.393 176.112  0.00  0.00     0.216 C 
ATOM      7  C4  IDS d 504     -18.340  49.999 176.331  0.00  0.00     0.189 C 
ENDROOT
BRANCH   5   8
ATOM      8  O4  SGN d 503     -21.704  50.492 175.105  0.00  0.00    -0.326 OA
BRANCH   8   9
ATOM      9  C4  SGN d 503     -22.776  49.792 174.563  0.00  0.00     0.180 C 
ATOM     10  C3  SGN d 503     -22.602  49.737 173.047  0.00  0.00     0.210 C 
ATOM     11  C2  SGN d 503     -23.645  48.792 172.480  0.00  0.00     0.207 C 
ATOM     12  O3  SGN d 503     -22.803  51.040 172.534  0.00  0.00    -0.218 OA
ATOM     13  C1  SGN d 503     -23.603  47.422 173.172  0.00  0.00     0.263 C 
ATOM     14  O5  SGN d 503     -23.775  47.589 174.558  0.00  0.00    -0.327 OA
ATOM     15  C5  SGN d 503     -22.782  48.369 175.148  0.00  0.00     0.179 C 
BRANCH  11  16
ATOM     16  N   SGN d 503     -23.498  48.641 171.044  0.00  0.00    -0.162 NA
BRANCH  16  17
ATOM     17  S1  SGN d 503     -24.718  49.165 170.102  0.00  0.00     0.227 S 
ATOM     18  O1S SGN d 503     -24.272  50.418 169.523  0.00  0.00    -0.577 OA
ATOM     19  O2S SGN d 503     -24.975  48.150 169.082  0.00  0.00    -0.577 OA
ATOM     20  O3S SGN d 503     -25.805  49.343 171.037  0.00  0.00    -0.577 OA
ENDBRANCH  16  17
ENDBRANCH  11  16
BRANCH  13  21
ATOM     21  O4  IDS d 502     -22.408  46.750 172.881  0.00  0.00    -0.326 OA
BRANCH  21  22
ATOM     22  C4  IDS d 502     -22.572  45.469 172.331  0.00  0.00     0.189 C 
ATOM     23  C3  IDS d 502     -22.036  45.454 170.887  0.00  0.00     0.216 C 
ATOM     24  O3  IDS d 502     -22.388  44.226 170.279  0.00  0.00    -0.218 OA
ATOM     25  C2  IDS d 502     -20.510  45.573 170.867  0.00  0.00     0.229 C 
ATOM     26  C1  IDS d 502     -19.851  44.604 171.844  0.00  0.00     0.301 C 
ATOM     27  O1  IDS d 502     -19.955  43.312 171.306  0.00  0.00    -0.187 OA
ATOM     28  O5  IDS d 502     -20.420  44.703 173.125  0.00  0.00    -0.316 OA
ATOM     29  C5  IDS d 502     -21.810  44.451 173.177  0.00  0.00     0.234 C 
BRANCH  25  30
ATOM     30  O2  IDS d 502     -20.189  46.878 171.268  0.00  0.00    -0.232 OA
BRANCH  30  31
ATOM     31  S   IDS d 502     -19.615  48.037 170.386  0.00  0.00     0.252 S 
ATOM     32  O3S IDS d 502     -20.693  48.392 169.500  0.00  0.00    -0.572 OA
ATOM     33  O2S IDS d 502     -18.463  47.485 169.711  0.00  0.00    -0.572 OA
ATOM     34  O1S IDS d 502     -19.266  49.113 171.271  0.00  0.00    -0.572 OA
ENDBRANCH  30  31
ENDBRANCH  25  30
BRANCH  29  35
ATOM     35  C6  IDS d 502     -22.287  44.357 174.620  0.00  0.00     0.216 C 
ATOM     36  O61 IDS d 502     -23.460  44.264 174.888  0.00  0.00    -0.646 OA
ATOM     37  O62 IDS d 502     -21.495  44.369 175.543  0.00  0.00    -0.646 OA
ENDBRANCH  29  35
ENDBRANCH  21  22
ENDBRANCH  13  21
BRANCH  15  38
ATOM     38  C6  SGN d 503     -23.075  48.303 176.622  0.00  0.00     0.198 C 
BRANCH  38  39
ATOM     39  O6  SGN d 503     -23.165  46.940 176.977  0.00  0.00    -0.235 OA
BRANCH  39  40
ATOM     40  S2  SGN d 503     -24.075  46.356 178.090  0.00  0.00     0.252 S 
ATOM     41  O4S SGN d 503     -24.959  45.412 177.494  0.00  0.00    -0.572 OA
ATOM     42  O5S SGN d 503     -23.198  45.734 179.077  0.00  0.00    -0.572 OA
ATOM     43  O6S SGN d 503     -24.800  47.474 178.553  0.00  0.00    -0.572 OA
ENDBRANCH  39  40
ENDBRANCH  38  39
ENDBRANCH  15  38
ENDBRANCH   8   9
ENDBRANCH   5   8
BRANCH   1  44
ATOM     44  O2  IDS d 504     -18.644  51.637 173.670  0.00  0.00    -0.233 OA
BRANCH  44  45
ATOM     45  S   IDS d 504     -18.462  52.824 172.707  0.00  0.00     0.252 S 
ATOM     46  O3S IDS d 504     -18.395  53.945 173.568  0.00  0.00    -0.572 OA
ATOM     47  O2S IDS d 504     -19.575  52.823 171.803  0.00  0.00    -0.572 OA
ATOM     48  O1S IDS d 504     -17.238  52.605 172.028  0.00  0.00    -0.572 OA
ENDBRANCH  44  45
ENDBRANCH   1  44
BRANCH   4  49
ATOM     49  C6  IDS d 504     -19.045  47.510 176.330  0.00  0.00     0.216 C 
ATOM     50  O62 IDS d 504     -19.131  46.636 175.465  0.00  0.00    -0.646 OA
ATOM     51  O61 IDS d 504     -18.664  47.178 177.445  0.00  0.00    -0.646 OA
ENDBRANCH   4  49
BRANCH   7  52
ATOM     52  O4  IDS d 504     -17.227  49.804 175.470  0.00  0.00    -0.326 OA
BRANCH  52  53
ATOM     53  C1  SGN d 505     -16.012  49.627 176.146  0.00  0.00     0.263 C 
ATOM     54  C2  SGN d 505     -14.946  50.576 175.634  0.00  0.00     0.207 C 
ATOM     55  C3  SGN d 505     -14.570  50.241 174.177  0.00  0.00     0.210 C 
ATOM     56  C4  SGN d 505     -14.104  48.756 174.194  0.00  0.00     0.180 C 
ATOM     57  O3  SGN d 505     -13.504  51.093 173.779  0.00  0.00    -0.218 OA
ATOM     58  C5  SGN d 505     -15.259  47.951 174.696  0.00  0.00     0.179 C 
ATOM     59  O5  SGN d 505     -15.565  48.307 176.009  0.00  0.00    -0.327 OA
BRANCH  54  60
ATOM     60  N   SGN d 505     -15.379  51.972 175.872  0.00  0.00    -0.162 NA
BRANCH  60  61
ATOM     61  S1  SGN d 505     -15.076  52.630 177.383  0.00  0.00     0.227 S 
ATOM     62  O3S SGN d 505     -16.191  52.311 178.203  0.00  0.00    -0.577 OA
ATOM     63  O1S SGN d 505     -13.836  52.061 177.868  0.00  0.00    -0.577 OA
ATOM     64  O2S SGN d 505     -14.979  54.053 177.157  0.00  0.00    -0.577 OA
ENDBRANCH  60  61
ENDBRANCH  54  60
BRANCH  56  65
ATOM     65  O4  SGN d 505     -13.771  48.208 172.936  0.00  0.00    -0.326 OA
BRANCH  65  66
ATOM     66  C1  IDS d 506     -12.555  48.421 172.305  0.00  0.00     0.269 C 
ATOM     67  C2  IDS d 506     -12.594  47.765 170.917  0.00  0.00     0.226 C 
ATOM     68  C3  IDS d 506     -11.193  47.642 170.255  0.00  0.00     0.219 C 
ATOM     69  O3  IDS d 506     -10.882  48.881 169.622  0.00  0.00    -0.218 OA
ATOM     70  C4  IDS d 506     -10.064  47.302 171.250  0.00  0.00     0.223 C 
ATOM     71  O4  IDS d 506     -10.100  45.910 171.464  0.00  0.00    -0.217 OA
ATOM     72  C5  IDS d 506     -10.272  48.035 172.579  0.00  0.00     0.237 C 
ATOM     73  O5  IDS d 506     -11.552  47.792 173.063  0.00  0.00    -0.318 OA
BRANCH  67  74
ATOM     74  O2  IDS d 506     -13.118  46.455 171.012  0.00  0.00    -0.233 OA
BRANCH  74  75
ATOM     75  S   IDS d 506     -14.220  45.767 170.097  0.00  0.00     0.252 S 
ATOM     76  O1S IDS d 506     -14.095  44.366 170.356  0.00  0.00    -0.572 OA
ATOM     77  O2S IDS d 506     -15.507  46.255 170.505  0.00  0.00    -0.572 OA
ATOM     78  O3S IDS d 506     -13.876  46.129 168.739  0.00  0.00    -0.572 OA
ENDBRANCH  74  75
ENDBRANCH  67  74
BRANCH  72  79
ATOM     79  C6  IDS d 506      -9.259  47.757 173.674  0.00  0.00     0.217 C 
ATOM     80  O61 IDS d 506      -8.116  48.178 173.571  0.00  0.00    -0.646 OA
ATOM     81  O62 IDS d 506      -9.541  47.105 174.665  0.00  0.00    -0.646 OA
ENDBRANCH  72  79
ENDBRANCH  65  66
ENDBRANCH  56  65
BRANCH  58  82
ATOM     82  C6  SGN d 505     -14.979  46.484 174.714  0.00  0.00     0.198 C 
BRANCH  82  83
ATOM     83  O6  SGN d 505     -15.886  45.952 175.618  0.00  0.00    -0.235 OA
BRANCH  83  84
ATOM     84  S2  SGN d 505     -15.696  44.728 176.502  0.00  0.00     0.252 S 
ATOM     85  O6S SGN d 505     -15.171  43.669 175.651  0.00  0.00    -0.572 OA
ATOM     86  O4S SGN d 505     -14.756  45.149 177.515  0.00  0.00    -0.572 OA
ATOM     87  O5S SGN d 505     -17.017  44.432 176.999  0.00  0.00    -0.572 OA
ENDBRANCH  83  84
ENDBRANCH  82  83
ENDBRANCH  58  82
ENDBRANCH  52  53
ENDBRANCH   7  52
TORSDOF 27

ENDMDL
MODEL 77
REMARK VINA RESULT:       5.5      2.668      7.270
REMARK  27 active torsions:
REMARK  status: ('A' for Active; 'I' for Inactive)
REMARK    1  A    between atoms: C2_1  and  O2_78 
REMARK    2  A    between atoms: C1_3  and  O4_50 
REMARK    3  A    between atoms: O4_5  and  C4_58 
REMARK    4  A    between atoms: O4_5  and  C1_27 
REMARK    5  A    between atoms: C2_6  and  N_39 
REMARK    6  A    between atoms: S1_9  and  N_39 
REMARK    7  A    between atoms: C6_10  and  C5_52 
REMARK    8  A    between atoms: C2_12  and  N_73 
REMARK    9  A    between atoms: C2_19  and  O2_24 
REMARK   10  A    between atoms: C2_21  and  O2_44 
REMARK   11  A    between atoms: S2_23  and  O6_65 
REMARK   12  A    between atoms: O2_24  and  S_54 
REMARK   13  A    between atoms: C1_28  and  O4_60 
REMARK   14  A    between atoms: C5_29  and  C6_38 
REMARK   15  A    between atoms: C5_30  and  C6_33 
REMARK   16  A    between atoms: S1_34  and  N_73 
REMARK   17  A    between atoms: C5_41  and  C6_46 
REMARK   18  A    between atoms: S_43  and  O2_44 
REMARK   19  A    between atoms: C6_46  and  O6_72 
REMARK   20  A    between atoms: O4_50  and  C4_71 
REMARK   21  A    between atoms: C1_56  and  O4_64 
REMARK   22  A    between atoms: O4_60  and  C4_83 
REMARK   23  A    between atoms: C4_61  and  O4_64 
REMARK   24  A    between atoms: S2_63  and  O6_72 
REMARK   25  A    between atoms: O6_65  and  C6_67 
REMARK   26  A    between atoms: C6_67  and  C5_75 
REMARK   27  A    between atoms: S_76  and  O2_78 
ROOT
ATOM      1  C2  IDS d 504     -10.709  43.986 173.472  0.00  0.00     0.226 C 
ATOM      2  O3  IDS d 504     -10.179  43.186 171.216  0.00  0.00    -0.218 OA
ATOM      3  O5  IDS d 504     -11.618  46.080 172.621  0.00  0.00    -0.318 OA
ATOM      4  C5  IDS d 504     -10.869  46.010 171.429  0.00  0.00     0.234 C 
ATOM      5  C1  IDS d 504     -11.950  44.807 173.184  0.00  0.00     0.269 C 
ATOM      6  C3  IDS d 504      -9.686  44.000 172.273  0.00  0.00     0.216 C 
ATOM      7  C4  IDS d 504      -9.497  45.400 171.708  0.00  0.00     0.189 C 
ENDROOT
BRANCH   5   8
ATOM      8  O4  SGN d 503     -12.790  44.057 172.354  0.00  0.00    -0.326 OA
BRANCH   8   9
ATOM      9  C4  SGN d 503     -14.145  44.223 172.620  0.00  0.00     0.180 C 
ATOM     10  C3  SGN d 503     -14.337  44.287 174.134  0.00  0.00     0.210 C 
ATOM     11  C2  SGN d 503     -15.774  44.687 174.416  0.00  0.00     0.207 C 
ATOM     12  O3  SGN d 503     -14.082  43.000 174.664  0.00  0.00    -0.218 OA
ATOM     13  C1  SGN d 503     -16.159  45.975 173.675  0.00  0.00     0.263 C 
ATOM     14  O5  SGN d 503     -15.946  45.804 172.295  0.00  0.00    -0.327 OA
ATOM     15  C5  SGN d 503     -14.618  45.535 171.970  0.00  0.00     0.179 C 
BRANCH  11  16
ATOM     16  N   SGN d 503     -16.012  44.830 175.842  0.00  0.00    -0.162 NA
BRANCH  16  17
ATOM     17  S1  SGN d 503     -17.157  43.887 176.512  0.00  0.00     0.227 S 
ATOM     18  O1S SGN d 503     -18.116  44.788 177.123  0.00  0.00    -0.577 OA
ATOM     19  O2S SGN d 503     -17.761  43.080 175.453  0.00  0.00    -0.577 OA
ATOM     20  O3S SGN d 503     -16.422  43.116 177.488  0.00  0.00    -0.577 OA
ENDBRANCH  16  17
ENDBRANCH  11  16
BRANCH  13  21
ATOM     21  O4  IDS d 502     -15.444  47.073 174.172  0.00  0.00    -0.326 OA
BRANCH  21  22
ATOM     22  C4  IDS d 502     -16.227  48.202 174.462  0.00  0.00     0.189 C 
ATOM     23  C3  IDS d 502     -16.344  48.372 175.989  0.00  0.00     0.216 C 
ATOM     24  O3  IDS d 502     -17.292  49.384 176.267  0.00  0.00    -0.218 OA
ATOM     25  C2  IDS d 502     -15.004  48.796 176.598  0.00  0.00     0.229 C 
ATOM     26  C1  IDS d 502     -14.375  49.957 175.834  0.00  0.00     0.301 C 
ATOM     27  O1  IDS d 502     -15.104  51.117 176.134  0.00  0.00    -0.187 OA
ATOM     28  O5  IDS d 502     -14.322  49.693 174.455  0.00  0.00    -0.316 OA
ATOM     29  C5  IDS d 502     -15.576  49.441 173.851  0.00  0.00     0.234 C 
BRANCH  25  30
ATOM     30  O2  IDS d 502     -14.139  47.696 176.508  0.00  0.00    -0.232 OA
BRANCH  30  31
ATOM     31  S   IDS d 502     -13.050  47.247 177.538  0.00  0.00     0.252 S 
ATOM     32  O3S IDS d 502     -13.201  48.150 178.649  0.00  0.00    -0.572 OA
ATOM     33  O2S IDS d 502     -11.784  47.372 176.853  0.00  0.00    -0.572 OA
ATOM     34  O1S IDS d 502     -13.343  45.889 177.902  0.00  0.00    -0.572 OA
ENDBRANCH  30  31
ENDBRANCH  25  30
BRANCH  29  35
ATOM     35  C6  IDS d 502     -15.444  49.394 172.336  0.00  0.00     0.216 C 
ATOM     36  O61 IDS d 502     -16.407  49.227 171.628  0.00  0.00    -0.646 OA
ATOM     37  O62 IDS d 502     -14.363  49.530 171.797  0.00  0.00    -0.646 OA
ENDBRANCH  29  35
ENDBRANCH  21  22
ENDBRANCH  13  21
BRANCH  15  38
ATOM     38  C6  SGN d 503     -14.589  45.529 170.466  0.00  0.00     0.198 C 
BRANCH  38  39
ATOM     39  O6  SGN d 503     -13.987  46.735 170.047  0.00  0.00    -0.235 OA
BRANCH  39  40
ATOM     40  S2  SGN d 503     -14.207  47.426 168.676  0.00  0.00     0.252 S 
ATOM     41  O4S SGN d 503     -13.369  48.575 168.614  0.00  0.00    -0.572 OA
ATOM     42  O5S SGN d 503     -13.870  46.448 167.645  0.00  0.00    -0.572 OA
ATOM     43  O6S SGN d 503     -15.563  47.816 168.710  0.00  0.00    -0.572 OA
ENDBRANCH  39  40
ENDBRANCH  38  39
ENDBRANCH  15  38
ENDBRANCH   8   9
ENDBRANCH   5   8
BRANCH   1  44
ATOM     44  O2  IDS d 504     -10.098  44.499 174.655  0.00  0.00    -0.233 OA
BRANCH  44  45
ATOM     45  S   IDS d 504      -9.832  43.728 175.961  0.00  0.00     0.252 S 
ATOM     46  O3S IDS d 504      -9.839  42.372 175.555  0.00  0.00    -0.572 OA
ATOM     47  O2S IDS d 504     -10.863  44.084 176.892  0.00  0.00    -0.572 OA
ATOM     48  O1S IDS d 504      -8.554  44.139 176.414  0.00  0.00    -0.572 OA
ENDBRANCH  44  45
ENDBRANCH   1  44
BRANCH   4  49
ATOM     49  C6  IDS d 504     -10.844  47.379 170.728  0.00  0.00     0.216 C 
ATOM     50  O62 IDS d 504     -11.252  48.393 171.298  0.00  0.00    -0.646 OA
ATOM     51  O61 IDS d 504     -10.435  47.491 169.580  0.00  0.00    -0.646 OA
ENDBRANCH   4  49
BRANCH   7  52
ATOM     52  O4  IDS d 504      -8.791  46.194 172.650  0.00  0.00    -0.326 OA
BRANCH  52  53
ATOM     53  C1  SGN d 505      -7.478  46.497 172.264  0.00  0.00     0.263 C 
ATOM     54  C2  SGN d 505      -6.582  46.720 173.467  0.00  0.00     0.207 C 
ATOM     55  C3  SGN d 505      -7.004  47.987 174.235  0.00  0.00     0.210 C 
ATOM     56  C4  SGN d 505      -6.935  49.149 173.201  0.00  0.00     0.180 C 
ATOM     57  O3  SGN d 505      -6.079  48.204 175.292  0.00  0.00    -0.218 OA
ATOM     58  C5  SGN d 505      -7.880  48.796 172.098  0.00  0.00     0.179 C 
ATOM     59  O5  SGN d 505      -7.458  47.635 171.450  0.00  0.00    -0.327 OA
BRANCH  54  60
ATOM     60  N   SGN d 505      -6.526  45.479 174.273  0.00  0.00    -0.162 NA
BRANCH  60  61
ATOM     61  S1  SGN d 505      -5.030  44.748 174.466  0.00  0.00     0.227 S 
ATOM     62  O3S SGN d 505      -4.642  44.950 175.817  0.00  0.00    -0.577 OA
ATOM     63  O1S SGN d 505      -5.179  43.349 174.124  0.00  0.00    -0.577 OA
ATOM     64  O2S SGN d 505      -4.154  45.448 173.557  0.00  0.00    -0.577 OA
ENDBRANCH  60  61
ENDBRANCH  54  60
BRANCH  56  65
ATOM     65  O4  SGN d 505      -7.352  50.412 173.676  0.00  0.00    -0.326 OA
BRANCH  65  66
ATOM     66  C1  IDS d 506      -6.919  50.963 174.872  0.00  0.00     0.269 C 
ATOM     67  C2  IDS d 506      -8.141  51.443 175.669  0.00  0.00     0.226 C 
ATOM     68  C3  IDS d 506      -7.773  52.372 176.859  0.00  0.00     0.219 C 
ATOM     69  O3  IDS d 506      -7.411  51.560 177.972  0.00  0.00    -0.218 OA
ATOM     70  C4  IDS d 506      -6.608  53.338 176.555  0.00  0.00     0.223 C 
ATOM     71  O4  IDS d 506      -7.144  54.431 175.848  0.00  0.00    -0.217 OA
ATOM     72  C5  IDS d 506      -5.538  52.646 175.704  0.00  0.00     0.237 C 
ATOM     73  O5  IDS d 506      -6.118  52.078 174.576  0.00  0.00    -0.318 OA
BRANCH  67  74
ATOM     74  O2  IDS d 506      -9.011  52.176 174.830  0.00  0.00    -0.233 OA
BRANCH  74  75
ATOM     75  S   IDS d 506     -10.553  51.918 174.545  0.00  0.00     0.252 S 
ATOM     76  O1S IDS d 506     -10.593  50.700 173.797  0.00  0.00    -0.572 OA
ATOM     77  O2S IDS d 506     -11.222  51.772 175.806  0.00  0.00    -0.572 OA
ATOM     78  O3S IDS d 506     -11.004  53.067 173.788  0.00  0.00    -0.572 OA
ENDBRANCH  74  75
ENDBRANCH  67  74
BRANCH  72  79
ATOM     79  C6  IDS d 506      -4.350  53.493 175.287  0.00  0.00     0.217 C 
ATOM     80  O61 IDS d 506      -3.802  54.222 176.103  0.00  0.00    -0.646 OA
ATOM     81  O62 IDS d 506      -3.920  53.487 174.146  0.00  0.00    -0.646 OA
ENDBRANCH  72  79
ENDBRANCH  65  66
ENDBRANCH  56  65
BRANCH  58  82
ATOM     82  C6  SGN d 505      -7.965  49.855 171.048  0.00  0.00     0.198 C 
BRANCH  82  83
ATOM     83  O6  SGN d 505      -6.880  49.629 170.215  0.00  0.00    -0.235 OA
BRANCH  83  84
ATOM     84  S2  SGN d 505      -6.885  49.552 168.695  0.00  0.00     0.252 S 
ATOM     85  O6S SGN d 505      -6.028  48.435 168.324  0.00  0.00    -0.572 OA
ATOM     86  O4S SGN d 505      -8.270  49.334 168.343  0.00  0.00    -0.572 OA
ATOM     87  O5S SGN d 505      -6.353  50.822 168.267  0.00  0.00    -0.572 OA
ENDBRANCH  83  84
ENDBRANCH  82  83
ENDBRANCH  58  82
ENDBRANCH  52  53
ENDBRANCH   7  52
TORSDOF 27

ENDMDL
MODEL 78
REMARK VINA RESULT:       5.5      4.060      8.797
REMARK  27 active torsions:
REMARK  status: ('A' for Active; 'I' for Inactive)
REMARK    1  A    between atoms: C2_1  and  O2_78 
REMARK    2  A    between atoms: C1_3  and  O4_50 
REMARK    3  A    between atoms: O4_5  and  C4_58 
REMARK    4  A    between atoms: O4_5  and  C1_27 
REMARK    5  A    between atoms: C2_6  and  N_39 
REMARK    6  A    between atoms: S1_9  and  N_39 
REMARK    7  A    between atoms: C6_10  and  C5_52 
REMARK    8  A    between atoms: C2_12  and  N_73 
REMARK    9  A    between atoms: C2_19  and  O2_24 
REMARK   10  A    between atoms: C2_21  and  O2_44 
REMARK   11  A    between atoms: S2_23  and  O6_65 
REMARK   12  A    between atoms: O2_24  and  S_54 
REMARK   13  A    between atoms: C1_28  and  O4_60 
REMARK   14  A    between atoms: C5_29  and  C6_38 
REMARK   15  A    between atoms: C5_30  and  C6_33 
REMARK   16  A    between atoms: S1_34  and  N_73 
REMARK   17  A    between atoms: C5_41  and  C6_46 
REMARK   18  A    between atoms: S_43  and  O2_44 
REMARK   19  A    between atoms: C6_46  and  O6_72 
REMARK   20  A    between atoms: O4_50  and  C4_71 
REMARK   21  A    between atoms: C1_56  and  O4_64 
REMARK   22  A    between atoms: O4_60  and  C4_83 
REMARK   23  A    between atoms: C4_61  and  O4_64 
REMARK   24  A    between atoms: S2_63  and  O6_72 
REMARK   25  A    between atoms: O6_65  and  C6_67 
REMARK   26  A    between atoms: C6_67  and  C5_75 
REMARK   27  A    between atoms: S_76  and  O2_78 
ROOT
ATOM      1  C2  IDS d 504     -16.338  45.736 175.019  0.00  0.00     0.226 C 
ATOM      2  O3  IDS d 504     -15.913  44.873 172.763  0.00  0.00    -0.218 OA
ATOM      3  O5  IDS d 504     -18.398  46.831 174.316  0.00  0.00    -0.318 OA
ATOM      4  C5  IDS d 504     -17.988  46.909 172.970  0.00  0.00     0.234 C 
ATOM      5  C1  IDS d 504     -17.853  45.719 175.034  0.00  0.00     0.269 C 
ATOM      6  C3  IDS d 504     -15.753  46.024 173.583  0.00  0.00     0.216 C 
ATOM      7  C4  IDS d 504     -16.484  47.167 172.895  0.00  0.00     0.189 C 
ENDROOT
BRANCH   5   8
ATOM      8  O4  SGN d 503     -18.284  44.490 174.525  0.00  0.00    -0.326 OA
BRANCH   8   9
ATOM      9  C4  SGN d 503     -19.536  44.094 174.983  0.00  0.00     0.180 C 
ATOM     10  C3  SGN d 503     -19.826  44.826 176.291  0.00  0.00     0.210 C 
ATOM     11  C2  SGN d 503     -21.272  44.565 176.674  0.00  0.00     0.207 C 
ATOM     12  O3  SGN d 503     -18.963  44.310 177.286  0.00  0.00    -0.218 OA
ATOM     13  C1  SGN d 503     -22.232  44.912 175.527  0.00  0.00     0.263 C 
ATOM     14  O5  SGN d 503     -21.876  44.183 174.379  0.00  0.00    -0.327 OA
ATOM     15  C5  SGN d 503     -20.589  44.463 173.924  0.00  0.00     0.179 C 
BRANCH  11  16
ATOM     16  N   SGN d 503     -21.638  45.287 177.880  0.00  0.00    -0.162 NA
BRANCH  16  17
ATOM     17  S1  SGN d 503     -22.690  44.571 178.895  0.00  0.00     0.227 S 
ATOM     18  O1S SGN d 503     -22.729  43.171 178.516  0.00  0.00    -0.577 OA
ATOM     19  O2S SGN d 503     -22.205  44.757 180.261  0.00  0.00    -0.577 OA
ATOM     20  O3S SGN d 503     -23.934  45.254 178.618  0.00  0.00    -0.577 OA
ENDBRANCH  16  17
ENDBRANCH  11  16
BRANCH  13  21
ATOM     21  O4  IDS d 502     -22.238  46.291 175.278  0.00  0.00    -0.326 OA
BRANCH  21  22
ATOM     22  C4  IDS d 502     -23.474  46.922 175.488  0.00  0.00     0.189 C 
ATOM     23  C3  IDS d 502     -23.311  48.044 176.532  0.00  0.00     0.216 C 
ATOM     24  O3  IDS d 502     -24.590  48.535 176.883  0.00  0.00    -0.218 OA
ATOM     25  C2  IDS d 502     -22.496  49.209 175.961  0.00  0.00     0.229 C 
ATOM     26  C1  IDS d 502     -22.997  49.633 174.584  0.00  0.00     0.301 C 
ATOM     27  O1  IDS d 502     -24.214  50.309 174.757  0.00  0.00    -0.187 OA
ATOM     28  O5  IDS d 502     -23.109  48.531 173.719  0.00  0.00    -0.316 OA
ATOM     29  C5  IDS d 502     -23.976  47.509 174.171  0.00  0.00     0.234 C 
BRANCH  25  30
ATOM     30  O2  IDS d 502     -21.173  48.764 175.825  0.00  0.00    -0.232 OA
BRANCH  30  31
ATOM     31  S   IDS d 502     -19.885  49.382 176.461  0.00  0.00     0.252 S 
ATOM     32  O3S IDS d 502     -20.371  50.370 177.389  0.00  0.00    -0.572 OA
ATOM     33  O2S IDS d 502     -19.128  49.936 175.362  0.00  0.00    -0.572 OA
ATOM     34  O1S IDS d 502     -19.184  48.317 177.125  0.00  0.00    -0.572 OA
ENDBRANCH  30  31
ENDBRANCH  25  30
BRANCH  29  35
ATOM     35  C6  IDS d 502     -24.208  46.477 173.076  0.00  0.00     0.216 C 
ATOM     36  O61 IDS d 502     -24.883  45.496 173.272  0.00  0.00    -0.646 OA
ATOM     37  O62 IDS d 502     -23.721  46.616 171.971  0.00  0.00    -0.646 OA
ENDBRANCH  29  35
ENDBRANCH  21  22
ENDBRANCH  13  21
BRANCH  15  38
ATOM     38  C6  SGN d 503     -20.468  43.697 172.634  0.00  0.00     0.198 C 
BRANCH  38  39
ATOM     39  O6  SGN d 503     -21.333  44.303 171.698  0.00  0.00    -0.235 OA
BRANCH  39  40
ATOM     40  S2  SGN d 503     -22.200  43.553 170.653  0.00  0.00     0.252 S 
ATOM     41  O4S SGN d 503     -22.678  44.502 169.705  0.00  0.00    -0.572 OA
ATOM     42  O5S SGN d 503     -21.346  42.545 170.032  0.00  0.00    -0.572 OA
ATOM     43  O6S SGN d 503     -23.274  43.043 171.412  0.00  0.00    -0.572 OA
ENDBRANCH  39  40
ENDBRANCH  38  39
ENDBRANCH  15  38
ENDBRANCH   8   9
ENDBRANCH   5   8
BRANCH   1  44
ATOM     44  O2  IDS d 504     -15.892  46.724 175.946  0.00  0.00    -0.233 OA
BRANCH  44  45
ATOM     45  S   IDS d 504     -15.062  46.482 177.220  0.00  0.00     0.252 S 
ATOM     46  O3S IDS d 504     -15.274  45.111 177.501  0.00  0.00    -0.572 OA
ATOM     47  O2S IDS d 504     -15.538  47.385 178.226  0.00  0.00    -0.572 OA
ATOM     48  O1S IDS d 504     -13.713  46.748 176.875  0.00  0.00    -0.572 OA
ENDBRANCH  44  45
ENDBRANCH   1  44
BRANCH   4  49
ATOM     49  C6  IDS d 504     -18.861  47.914 172.200  0.00  0.00     0.216 C 
ATOM     50  O62 IDS d 504     -18.491  48.384 171.122  0.00  0.00    -0.646 OA
ATOM     51  O61 IDS d 504     -19.939  48.285 172.648  0.00  0.00    -0.646 OA
ENDBRANCH   4  49
BRANCH   7  52
ATOM     52  O4  IDS d 504     -16.165  48.388 173.545  0.00  0.00    -0.326 OA
BRANCH  52  53
ATOM     53  C1  SGN d 505     -15.307  49.216 172.808  0.00  0.00     0.263 C 
ATOM     54  C2  SGN d 505     -14.200  49.784 173.674  0.00  0.00     0.207 C 
ATOM     55  C3  SGN d 505     -14.773  50.752 174.728  0.00  0.00     0.210 C 
ATOM     56  C4  SGN d 505     -15.537  51.844 173.925  0.00  0.00     0.180 C 
ATOM     57  O3  SGN d 505     -13.690  51.327 175.447  0.00  0.00    -0.218 OA
ATOM     58  C5  SGN d 505     -16.599  51.137 173.147  0.00  0.00     0.179 C 
ATOM     59  O5  SGN d 505     -16.025  50.265 172.222  0.00  0.00    -0.327 OA
BRANCH  54  60
ATOM     60  N   SGN d 505     -13.380  48.673 174.212  0.00  0.00    -0.162 NA
BRANCH  60  61
ATOM     61  S1  SGN d 505     -11.720  48.762 173.998  0.00  0.00     0.227 S 
ATOM     62  O3S SGN d 505     -11.394  47.893 172.925  0.00  0.00    -0.577 OA
ATOM     63  O1S SGN d 505     -11.388  50.145 173.727  0.00  0.00    -0.577 OA
ATOM     64  O2S SGN d 505     -11.159  48.295 175.244  0.00  0.00    -0.577 OA
ENDBRANCH  60  61
ENDBRANCH  54  60
BRANCH  56  65
ATOM     65  O4  SGN d 505     -16.209  52.813 174.702  0.00  0.00    -0.326 OA
BRANCH  65  66
ATOM     66  C1  IDS d 506     -15.638  54.015 175.090  0.00  0.00     0.269 C 
ATOM     67  C2  IDS d 506     -16.702  54.864 175.800  0.00  0.00     0.226 C 
ATOM     68  C3  IDS d 506     -16.285  56.350 175.979  0.00  0.00     0.219 C 
ATOM     69  O3  IDS d 506     -15.473  56.455 177.145  0.00  0.00    -0.218 OA
ATOM     70  C4  IDS d 506     -15.498  56.923 174.780  0.00  0.00     0.223 C 
ATOM     71  O4  IDS d 506     -16.439  57.290 173.799  0.00  0.00    -0.217 OA
ATOM     72  C5  IDS d 506     -14.539  55.873 174.210  0.00  0.00     0.237 C 
ATOM     73  O5  IDS d 506     -15.228  54.698 173.932  0.00  0.00    -0.318 OA
BRANCH  67  74
ATOM     74  O2  IDS d 506     -17.903  54.863 175.053  0.00  0.00    -0.233 OA
BRANCH  74  75
ATOM     75  S   IDS d 506     -19.392  54.697 175.584  0.00  0.00     0.252 S 
ATOM     76  O1S IDS d 506     -20.223  55.026 174.467  0.00  0.00    -0.572 OA
ATOM     77  O2S IDS d 506     -19.575  53.329 175.979  0.00  0.00    -0.572 OA
ATOM     78  O3S IDS d 506     -19.518  55.630 176.683  0.00  0.00    -0.572 OA
ENDBRANCH  74  75
ENDBRANCH  67  74
BRANCH  72  79
ATOM     79  C6  IDS d 506     -13.731  56.282 172.992  0.00  0.00     0.217 C 
ATOM     80  O61 IDS d 506     -14.047  55.875 171.883  0.00  0.00    -0.646 OA
ATOM     81  O62 IDS d 506     -12.751  57.002 173.079  0.00  0.00    -0.646 OA
ENDBRANCH  72  79
ENDBRANCH  65  66
ENDBRANCH  56  65
BRANCH  58  82
ATOM     82  C6  SGN d 505     -17.462  52.071 172.362  0.00  0.00     0.198 C 
BRANCH  82  83
ATOM     83  O6  SGN d 505     -18.699  51.449 172.289  0.00  0.00    -0.235 OA
BRANCH  83  84
ATOM     84  S2  SGN d 505     -20.044  52.103 172.009  0.00  0.00     0.252 S 
ATOM     85  O6S SGN d 505     -20.676  51.333 170.947  0.00  0.00    -0.572 OA
ATOM     86  O4S SGN d 505     -20.761  52.019 173.262  0.00  0.00    -0.572 OA
ATOM     87  O5S SGN d 505     -19.715  53.445 171.598  0.00  0.00    -0.572 OA
ENDBRANCH  83  84
ENDBRANCH  82  83
ENDBRANCH  58  82
ENDBRANCH  52  53
ENDBRANCH   7  52
TORSDOF 27

ENDMDL
MODEL 79
REMARK VINA RESULT:       5.5      3.358      9.755
REMARK  27 active torsions:
REMARK  status: ('A' for Active; 'I' for Inactive)
REMARK    1  A    between atoms: C2_1  and  O2_78 
REMARK    2  A    between atoms: C1_3  and  O4_50 
REMARK    3  A    between atoms: O4_5  and  C4_58 
REMARK    4  A    between atoms: O4_5  and  C1_27 
REMARK    5  A    between atoms: C2_6  and  N_39 
REMARK    6  A    between atoms: S1_9  and  N_39 
REMARK    7  A    between atoms: C6_10  and  C5_52 
REMARK    8  A    between atoms: C2_12  and  N_73 
REMARK    9  A    between atoms: C2_19  and  O2_24 
REMARK   10  A    between atoms: C2_21  and  O2_44 
REMARK   11  A    between atoms: S2_23  and  O6_65 
REMARK   12  A    between atoms: O2_24  and  S_54 
REMARK   13  A    between atoms: C1_28  and  O4_60 
REMARK   14  A    between atoms: C5_29  and  C6_38 
REMARK   15  A    between atoms: C5_30  and  C6_33 
REMARK   16  A    between atoms: S1_34  and  N_73 
REMARK   17  A    between atoms: C5_41  and  C6_46 
REMARK   18  A    between atoms: S_43  and  O2_44 
REMARK   19  A    between atoms: C6_46  and  O6_72 
REMARK   20  A    between atoms: O4_50  and  C4_71 
REMARK   21  A    between atoms: C1_56  and  O4_64 
REMARK   22  A    between atoms: O4_60  and  C4_83 
REMARK   23  A    between atoms: C4_61  and  O4_64 
REMARK   24  A    between atoms: S2_63  and  O6_72 
REMARK   25  A    between atoms: O6_65  and  C6_67 
REMARK   26  A    between atoms: C6_67  and  C5_75 
REMARK   27  A    between atoms: S_76  and  O2_78 
ROOT
ATOM      1  C2  IDS d 504     -16.021  45.801 175.147  0.00  0.00     0.226 C 
ATOM      2  O3  IDS d 504     -15.409  46.619 177.376  0.00  0.00    -0.218 OA
ATOM      3  O5  IDS d 504     -14.292  47.140 174.074  0.00  0.00    -0.318 OA
ATOM      4  C5  IDS d 504     -14.250  48.072 175.131  0.00  0.00     0.234 C 
ATOM      5  C1  IDS d 504     -14.665  45.817 174.471  0.00  0.00     0.269 C 
ATOM      6  C3  IDS d 504     -16.172  46.946 176.222  0.00  0.00     0.216 C 
ATOM      7  C4  IDS d 504     -15.651  48.277 175.704  0.00  0.00     0.189 C 
ENDROOT
BRANCH   5   8
ATOM      8  O4  SGN d 503     -13.735  45.235 175.338  0.00  0.00    -0.326 OA
BRANCH   8   9
ATOM      9  C4  SGN d 503     -12.716  44.542 174.694  0.00  0.00     0.180 C 
ATOM     10  C3  SGN d 503     -13.078  44.411 173.217  0.00  0.00     0.210 C 
ATOM     11  C2  SGN d 503     -11.875  43.855 172.477  0.00  0.00     0.207 C 
ATOM     12  O3  SGN d 503     -14.167  43.514 173.108  0.00  0.00    -0.218 OA
ATOM     13  C1  SGN d 503     -10.612  44.684 172.748  0.00  0.00     0.263 C 
ATOM     14  O5  SGN d 503     -10.372  44.737 174.132  0.00  0.00    -0.327 OA
ATOM     15  C5  SGN d 503     -11.406  45.334 174.850  0.00  0.00     0.179 C 
BRANCH  11  16
ATOM     16  N   SGN d 503     -12.127  43.763 171.050  0.00  0.00    -0.162 NA
BRANCH  16  17
ATOM     17  S1  SGN d 503     -11.840  42.334 170.325  0.00  0.00     0.227 S 
ATOM     18  O1S SGN d 503     -11.134  41.522 171.297  0.00  0.00    -0.577 OA
ATOM     19  O2S SGN d 503     -13.125  41.747 169.949  0.00  0.00    -0.577 OA
ATOM     20  O3S SGN d 503     -11.010  42.696 169.198  0.00  0.00    -0.577 OA
ENDBRANCH  16  17
ENDBRANCH  11  16
BRANCH  13  21
ATOM     21  O4  IDS d 502     -10.728  45.968 172.198  0.00  0.00    -0.326 OA
BRANCH  21  22
ATOM     22  C4  IDS d 502      -9.638  46.372 171.409  0.00  0.00     0.189 C 
ATOM     23  C3  IDS d 502     -10.041  46.355 169.923  0.00  0.00     0.216 C 
ATOM     24  O3  IDS d 502      -8.888  46.565 169.132  0.00  0.00    -0.218 OA
ATOM     25  C2  IDS d 502     -11.040  47.474 169.613  0.00  0.00     0.229 C 
ATOM     26  C1  IDS d 502     -10.583  48.816 170.175  0.00  0.00     0.301 C 
ATOM     27  O1  IDS d 502      -9.520  49.276 169.383  0.00  0.00    -0.187 OA
ATOM     28  O5  IDS d 502     -10.239  48.711 171.534  0.00  0.00    -0.316 OA
ATOM     29  C5  IDS d 502      -9.212  47.781 171.815  0.00  0.00     0.234 C 
BRANCH  25  30
ATOM     30  O2  IDS d 502     -12.252  47.133 170.231  0.00  0.00    -0.232 OA
BRANCH  30  31
ATOM     31  S   IDS d 502     -13.691  47.198 169.620  0.00  0.00     0.252 S 
ATOM     32  O3S IDS d 502     -14.565  46.814 170.698  0.00  0.00    -0.572 OA
ATOM     33  O2S IDS d 502     -13.690  46.271 168.512  0.00  0.00    -0.572 OA
ATOM     34  O1S IDS d 502     -13.914  48.553 169.199  0.00  0.00    -0.572 OA
ENDBRANCH  30  31
ENDBRANCH  25  30
BRANCH  29  35
ATOM     35  C6  IDS d 502      -8.757  47.904 173.262  0.00  0.00     0.216 C 
ATOM     36  O61 IDS d 502      -9.523  48.235 174.134  0.00  0.00    -0.646 OA
ATOM     37  O62 IDS d 502      -7.608  47.665 173.580  0.00  0.00    -0.646 OA
ENDBRANCH  29  35
ENDBRANCH  21  22
ENDBRANCH  13  21
BRANCH  15  38
ATOM     38  C6  SGN d 503     -10.891  45.413 176.262  0.00  0.00     0.198 C 
BRANCH  38  39
ATOM     39  O6  SGN d 503     -10.557  44.103 176.666  0.00  0.00    -0.235 OA
BRANCH  39  40
ATOM     40  S2  SGN d 503     -11.264  43.295 177.786  0.00  0.00     0.252 S 
ATOM     41  O4S SGN d 503     -12.422  44.016 178.193  0.00  0.00    -0.572 OA
ATOM     42  O5S SGN d 503     -11.602  41.991 177.224  0.00  0.00    -0.572 OA
ATOM     43  O6S SGN d 503     -10.317  43.270 178.831  0.00  0.00    -0.572 OA
ENDBRANCH  39  40
ENDBRANCH  38  39
ENDBRANCH  15  38
ENDBRANCH   8   9
ENDBRANCH   5   8
BRANCH   1  44
ATOM     44  O2  IDS d 504     -17.025  45.926 174.141  0.00  0.00    -0.233 OA
BRANCH  44  45
ATOM     45  S   IDS d 504     -17.709  44.778 173.377  0.00  0.00     0.252 S 
ATOM     46  O3S IDS d 504     -19.089  45.055 173.526  0.00  0.00    -0.572 OA
ATOM     47  O2S IDS d 504     -17.274  43.546 173.965  0.00  0.00    -0.572 OA
ATOM     48  O1S IDS d 504     -17.289  44.890 172.028  0.00  0.00    -0.572 OA
ENDBRANCH  44  45
ENDBRANCH   1  44
BRANCH   4  49
ATOM     49  C6  IDS d 504     -13.532  49.357 174.686  0.00  0.00     0.216 C 
ATOM     50  O62 IDS d 504     -13.644  50.404 175.327  0.00  0.00    -0.646 OA
ATOM     51  O61 IDS d 504     -12.845  49.376 173.673  0.00  0.00    -0.646 OA
ENDBRANCH   4  49
BRANCH   7  52
ATOM     52  O4  IDS d 504     -16.525  48.763 174.695  0.00  0.00    -0.326 OA
BRANCH  52  53
ATOM     53  C1  SGN d 505     -17.769  49.189 175.180  0.00  0.00     0.263 C 
ATOM     54  C2  SGN d 505     -18.633  49.760 174.073  0.00  0.00     0.207 C 
ATOM     55  C3  SGN d 505     -18.025  51.064 173.522  0.00  0.00     0.210 C 
ATOM     56  C4  SGN d 505     -17.898  52.018 174.746  0.00  0.00     0.180 C 
ATOM     57  O3  SGN d 505     -18.918  51.607 172.558  0.00  0.00    -0.218 OA
ATOM     58  C5  SGN d 505     -17.007  51.332 175.731  0.00  0.00     0.179 C 
ATOM     59  O5  SGN d 505     -17.599  50.152 176.181  0.00  0.00    -0.327 OA
BRANCH  54  60
ATOM     60  N   SGN d 505     -18.894  48.707 173.064  0.00  0.00    -0.162 NA
BRANCH  60  61
ATOM     61  S1  SGN d 505     -20.437  48.620 172.417  0.00  0.00     0.227 S 
ATOM     62  O3S SGN d 505     -20.821  47.253 172.443  0.00  0.00    -0.577 OA
ATOM     63  O1S SGN d 505     -21.297  49.464 173.220  0.00  0.00    -0.577 OA
ATOM     64  O2S SGN d 505     -20.301  49.102 171.062  0.00  0.00    -0.577 OA
ENDBRANCH  60  61
ENDBRANCH  54  60
BRANCH  56  65
ATOM     65  O4  SGN d 505     -17.293  53.267 174.485  0.00  0.00    -0.326 OA
BRANCH  65  66
ATOM     66  C1  IDS d 506     -17.986  54.371 174.013  0.00  0.00     0.269 C 
ATOM     67  C2  IDS d 506     -17.097  55.615 174.155  0.00  0.00     0.226 C 
ATOM     68  C3  IDS d 506     -17.873  56.949 173.980  0.00  0.00     0.219 C 
ATOM     69  O3  IDS d 506     -17.982  57.230 172.587  0.00  0.00    -0.218 OA
ATOM     70  C4  IDS d 506     -19.292  56.927 174.588  0.00  0.00     0.223 C 
ATOM     71  O4  IDS d 506     -19.159  57.170 175.969  0.00  0.00    -0.217 OA
ATOM     72  C5  IDS d 506     -19.957  55.565 174.363  0.00  0.00     0.237 C 
ATOM     73  O5  IDS d 506     -19.126  54.547 174.815  0.00  0.00    -0.318 OA
BRANCH  67  74
ATOM     74  O2  IDS d 506     -16.510  55.648 175.441  0.00  0.00    -0.233 OA
BRANCH  74  75
ATOM     75  S   IDS d 506     -14.969  55.725 175.818  0.00  0.00     0.252 S 
ATOM     76  O1S IDS d 506     -14.344  54.700 175.040  0.00  0.00    -0.572 OA
ATOM     77  O2S IDS d 506     -14.483  57.024 175.447  0.00  0.00    -0.572 OA
ATOM     78  O3S IDS d 506     -14.905  55.477 177.242  0.00  0.00    -0.572 OA
ENDBRANCH  74  75
ENDBRANCH  67  74
BRANCH  72  79
ATOM     79  C6  IDS d 506     -21.344  55.382 174.952  0.00  0.00     0.217 C 
ATOM     80  O61 IDS d 506     -21.586  54.412 175.657  0.00  0.00    -0.646 OA
ATOM     81  O62 IDS d 506     -22.248  56.169 174.734  0.00  0.00    -0.646 OA
ENDBRANCH  72  79
ENDBRANCH  65  66
ENDBRANCH  56  65
BRANCH  58  82
ATOM     82  C6  SGN d 505     -16.743  52.159 176.947  0.00  0.00     0.198 C 
BRANCH  82  83
ATOM     83  O6  SGN d 505     -16.336  51.257 177.918  0.00  0.00    -0.235 OA
BRANCH  83  84
ATOM     84  S2  SGN d 505     -15.014  51.246 178.670  0.00  0.00     0.252 S 
ATOM     85  O6S SGN d 505     -14.448  49.913 178.514  0.00  0.00    -0.572 OA
ATOM     86  O4S SGN d 505     -14.218  52.268 178.029  0.00  0.00    -0.572 OA
ATOM     87  O5S SGN d 505     -15.371  51.537 180.036  0.00  0.00    -0.572 OA
ENDBRANCH  83  84
ENDBRANCH  82  83
ENDBRANCH  58  82
ENDBRANCH  52  53
ENDBRANCH   7  52
TORSDOF 27

ENDMDL
MODEL 80
REMARK VINA RESULT:       5.5      3.963      6.852
REMARK  27 active torsions:
REMARK  status: ('A' for Active; 'I' for Inactive)
REMARK    1  A    between atoms: C2_1  and  O2_78 
REMARK    2  A    between atoms: C1_3  and  O4_50 
REMARK    3  A    between atoms: O4_5  and  C4_58 
REMARK    4  A    between atoms: O4_5  and  C1_27 
REMARK    5  A    between atoms: C2_6  and  N_39 
REMARK    6  A    between atoms: S1_9  and  N_39 
REMARK    7  A    between atoms: C6_10  and  C5_52 
REMARK    8  A    between atoms: C2_12  and  N_73 
REMARK    9  A    between atoms: C2_19  and  O2_24 
REMARK   10  A    between atoms: C2_21  and  O2_44 
REMARK   11  A    between atoms: S2_23  and  O6_65 
REMARK   12  A    between atoms: O2_24  and  S_54 
REMARK   13  A    between atoms: C1_28  and  O4_60 
REMARK   14  A    between atoms: C5_29  and  C6_38 
REMARK   15  A    between atoms: C5_30  and  C6_33 
REMARK   16  A    between atoms: S1_34  and  N_73 
REMARK   17  A    between atoms: C5_41  and  C6_46 
REMARK   18  A    between atoms: S_43  and  O2_44 
REMARK   19  A    between atoms: C6_46  and  O6_72 
REMARK   20  A    between atoms: O4_50  and  C4_71 
REMARK   21  A    between atoms: C1_56  and  O4_64 
REMARK   22  A    between atoms: O4_60  and  C4_83 
REMARK   23  A    between atoms: C4_61  and  O4_64 
REMARK   24  A    between atoms: S2_63  and  O6_72 
REMARK   25  A    between atoms: O6_65  and  C6_67 
REMARK   26  A    between atoms: C6_67  and  C5_75 
REMARK   27  A    between atoms: S_76  and  O2_78 
ROOT
ATOM      1  C2  IDS d 504     -17.314  50.363 175.795  0.00  0.00     0.226 C 
ATOM      2  O3  IDS d 504     -18.538  48.308 175.252  0.00  0.00    -0.218 OA
ATOM      3  O5  IDS d 504     -16.883  50.842 173.446  0.00  0.00    -0.318 OA
ATOM      4  C5  IDS d 504     -17.014  49.491 173.066  0.00  0.00     0.234 C 
ATOM      5  C1  IDS d 504     -17.662  51.212 174.589  0.00  0.00     0.269 C 
ATOM      6  C3  IDS d 504     -17.228  48.827 175.447  0.00  0.00     0.216 C 
ATOM      7  C4  IDS d 504     -16.455  48.584 174.160  0.00  0.00     0.189 C 
ENDROOT
BRANCH   5   8
ATOM      8  O4  SGN d 503     -19.037  51.105 174.357  0.00  0.00    -0.326 OA
BRANCH   8   9
ATOM      9  C4  SGN d 503     -19.670  52.323 174.136  0.00  0.00     0.180 C 
ATOM     10  C3  SGN d 503     -19.190  53.317 175.192  0.00  0.00     0.210 C 
ATOM     11  C2  SGN d 503     -19.708  54.694 174.821  0.00  0.00     0.207 C 
ATOM     12  O3  SGN d 503     -19.723  52.922 176.442  0.00  0.00    -0.218 OA
ATOM     13  C1  SGN d 503     -19.332  55.071 173.380  0.00  0.00     0.263 C 
ATOM     14  O5  SGN d 503     -19.823  54.094 172.496  0.00  0.00    -0.327 OA
ATOM     15  C5  SGN d 503     -19.299  52.824 172.730  0.00  0.00     0.179 C 
BRANCH  11  16
ATOM     16  N   SGN d 503     -19.235  55.705 175.750  0.00  0.00    -0.162 NA
BRANCH  16  17
ATOM     17  S1  SGN d 503     -20.253  56.918 176.126  0.00  0.00     0.227 S 
ATOM     18  O1S SGN d 503     -21.083  57.126 174.955  0.00  0.00    -0.577 OA
ATOM     19  O2S SGN d 503     -21.038  56.511 177.291  0.00  0.00    -0.577 OA
ATOM     20  O3S SGN d 503     -19.364  58.030 176.379  0.00  0.00    -0.577 OA
ENDBRANCH  16  17
ENDBRANCH  11  16
BRANCH  13  21
ATOM     21  O4  IDS d 502     -17.946  55.231 173.249  0.00  0.00    -0.326 OA
BRANCH  21  22
ATOM     22  C4  IDS d 502     -17.514  56.564 173.158  0.00  0.00     0.189 C 
ATOM     23  C3  IDS d 502     -16.232  56.750 173.992  0.00  0.00     0.216 C 
ATOM     24  O3  IDS d 502     -15.922  58.129 174.057  0.00  0.00    -0.218 OA
ATOM     25  C2  IDS d 502     -15.047  56.027 173.345  0.00  0.00     0.229 C 
ATOM     26  C1  IDS d 502     -14.937  56.338 171.856  0.00  0.00     0.301 C 
ATOM     27  O1  IDS d 502     -14.463  57.652 171.723  0.00  0.00    -0.187 OA
ATOM     28  O5  IDS d 502     -16.163  56.136 171.199  0.00  0.00    -0.316 OA
ATOM     29  C5  IDS d 502     -17.236  56.910 171.697  0.00  0.00     0.234 C 
BRANCH  25  30
ATOM     30  O2  IDS d 502     -15.272  54.650 173.487  0.00  0.00    -0.232 OA
BRANCH  30  31
ATOM     31  S   IDS d 502     -14.304  53.479 173.115  0.00  0.00     0.252 S 
ATOM     32  O3S IDS d 502     -13.005  54.092 173.019  0.00  0.00    -0.572 OA
ATOM     33  O2S IDS d 502     -14.791  52.948 171.863  0.00  0.00    -0.572 OA
ATOM     34  O1S IDS d 502     -14.370  52.517 174.179  0.00  0.00    -0.572 OA
ENDBRANCH  30  31
ENDBRANCH  25  30
BRANCH  29  35
ATOM     35  C6  IDS d 502     -18.451  56.795 170.786  0.00  0.00     0.216 C 
ATOM     36  O61 IDS d 502     -18.531  55.923 169.956  0.00  0.00    -0.646 OA
ATOM     37  O62 IDS d 502     -19.377  57.577 170.876  0.00  0.00    -0.646 OA
ENDBRANCH  29  35
ENDBRANCH  21  22
ENDBRANCH  13  21
BRANCH  15  38
ATOM     38  C6  SGN d 503     -19.838  51.980 171.607  0.00  0.00     0.198 C 
BRANCH  38  39
ATOM     39  O6  SGN d 503     -21.242  51.947 171.736  0.00  0.00    -0.235 OA
BRANCH  39  40
ATOM     40  S2  SGN d 503     -22.124  50.671 171.687  0.00  0.00     0.252 S 
ATOM     41  O4S SGN d 503     -22.656  50.544 170.372  0.00  0.00    -0.572 OA
ATOM     42  O5S SGN d 503     -21.265  49.544 172.039  0.00  0.00    -0.572 OA
ATOM     43  O6S SGN d 503     -23.160  50.943 172.605  0.00  0.00    -0.572 OA
ENDBRANCH  39  40
ENDBRANCH  38  39
ENDBRANCH  15  38
ENDBRANCH   8   9
ENDBRANCH   5   8
BRANCH   1  44
ATOM     44  O2  IDS d 504     -16.074  50.824 176.326  0.00  0.00    -0.233 OA
BRANCH  44  45
ATOM     45  S   IDS d 504     -15.877  51.702 177.575  0.00  0.00     0.252 S 
ATOM     46  O3S IDS d 504     -15.391  50.796 178.547  0.00  0.00    -0.572 OA
ATOM     47  O2S IDS d 504     -17.142  52.301 177.888  0.00  0.00    -0.572 OA
ATOM     48  O1S IDS d 504     -14.909  52.678 177.230  0.00  0.00    -0.572 OA
ENDBRANCH  44  45
ENDBRANCH   1  44
BRANCH   4  49
ATOM     49  C6  IDS d 504     -16.422  49.267 171.665  0.00  0.00     0.216 C 
ATOM     50  O62 IDS d 504     -15.462  49.930 171.266  0.00  0.00    -0.646 OA
ATOM     51  O61 IDS d 504     -16.901  48.435 170.905  0.00  0.00    -0.646 OA
ENDBRANCH   4  49
BRANCH   7  52
ATOM     52  O4  IDS d 504     -15.081  48.869 174.377  0.00  0.00    -0.326 OA
BRANCH  52  53
ATOM     53  C1  SGN d 505     -14.307  47.740 174.677  0.00  0.00     0.263 C 
ATOM     54  C2  SGN d 505     -13.083  48.103 175.494  0.00  0.00     0.207 C 
ATOM     55  C3  SGN d 505     -12.109  48.965 174.667  0.00  0.00     0.210 C 
ATOM     56  C4  SGN d 505     -11.768  48.119 173.405  0.00  0.00     0.180 C 
ATOM     57  O3  SGN d 505     -10.941  49.197 175.443  0.00  0.00    -0.218 OA
ATOM     58  C5  SGN d 505     -13.060  47.863 172.700  0.00  0.00     0.179 C 
ATOM     59  O5  SGN d 505     -13.907  47.096 173.500  0.00  0.00    -0.327 OA
BRANCH  54  60
ATOM     60  N   SGN d 505     -13.513  48.694 176.783  0.00  0.00    -0.162 NA
BRANCH  60  61
ATOM     61  S1  SGN d 505     -13.949  47.639 178.011  0.00  0.00     0.227 S 
ATOM     62  O3S SGN d 505     -15.359  47.492 177.949  0.00  0.00    -0.577 OA
ATOM     63  O1S SGN d 505     -13.240  46.396 177.791  0.00  0.00    -0.577 OA
ATOM     64  O2S SGN d 505     -13.541  48.298 179.229  0.00  0.00    -0.577 OA
ENDBRANCH  60  61
ENDBRANCH  54  60
BRANCH  56  65
ATOM     65  O4  SGN d 505     -10.931  48.748 172.458  0.00  0.00    -0.326 OA
BRANCH  65  66
ATOM     66  C1  IDS d 506      -9.687  49.277 172.766  0.00  0.00     0.269 C 
ATOM     67  C2  IDS d 506      -8.978  49.672 171.463  0.00  0.00     0.226 C 
ATOM     68  C3  IDS d 506      -7.462  49.958 171.649  0.00  0.00     0.219 C 
ATOM     69  O3  IDS d 506      -7.306  51.301 172.098  0.00  0.00    -0.218 OA
ATOM     70  C4  IDS d 506      -6.773  49.019 172.662  0.00  0.00     0.223 C 
ATOM     71  O4  IDS d 506      -6.478  47.819 171.986  0.00  0.00    -0.217 OA
ATOM     72  C5  IDS d 506      -7.697  48.730 173.849  0.00  0.00     0.237 C 
ATOM     73  O5  IDS d 506      -8.929  48.275 173.396  0.00  0.00    -0.318 OA
BRANCH  67  74
ATOM     74  O2  IDS d 506      -9.084  48.627 170.516  0.00  0.00    -0.233 OA
BRANCH  74  75
ATOM     75  S   IDS d 506      -9.760  48.667 169.078  0.00  0.00     0.252 S 
ATOM     76  O1S IDS d 506      -9.993  47.296 168.739  0.00  0.00    -0.572 OA
ATOM     77  O2S IDS d 506     -10.997  49.388 169.186  0.00  0.00    -0.572 OA
ATOM     78  O3S IDS d 506      -8.795  49.312 168.214  0.00  0.00    -0.572 OA
ENDBRANCH  74  75
ENDBRANCH  67  74
BRANCH  72  79
ATOM     79  C6  IDS d 506      -7.167  47.778 174.906  0.00  0.00     0.217 C 
ATOM     80  O61 IDS d 506      -7.788  46.761 175.180  0.00  0.00    -0.646 OA
ATOM     81  O62 IDS d 506      -6.135  47.999 175.516  0.00  0.00    -0.646 OA
ENDBRANCH  72  79
ENDBRANCH  65  66
ENDBRANCH  56  65
BRANCH  58  82
ATOM     82  C6  SGN d 505     -12.885  47.103 171.426  0.00  0.00     0.198 C 
BRANCH  82  83
ATOM     83  O6  SGN d 505     -13.950  46.215 171.383  0.00  0.00    -0.235 OA
BRANCH  83  84
ATOM     84  S2  SGN d 505     -14.418  45.395 170.190  0.00  0.00     0.252 S 
ATOM     85  O6S SGN d 505     -13.826  45.997 169.003  0.00  0.00    -0.572 OA
ATOM     86  O4S SGN d 505     -13.923  44.061 170.445  0.00  0.00    -0.572 OA
ATOM     87  O5S SGN d 505     -15.855  45.513 170.211  0.00  0.00    -0.572 OA
ENDBRANCH  83  84
ENDBRANCH  82  83
ENDBRANCH  58  82
ENDBRANCH  52  53
ENDBRANCH   7  52
TORSDOF 27

ENDMDL
MODEL 81
REMARK VINA RESULT:       5.6      2.985     10.366
REMARK  27 active torsions:
REMARK  status: ('A' for Active; 'I' for Inactive)
REMARK    1  A    between atoms: C2_1  and  O2_78 
REMARK    2  A    between atoms: C1_3  and  O4_50 
REMARK    3  A    between atoms: O4_5  and  C4_58 
REMARK    4  A    between atoms: O4_5  and  C1_27 
REMARK    5  A    between atoms: C2_6  and  N_39 
REMARK    6  A    between atoms: S1_9  and  N_39 
REMARK    7  A    between atoms: C6_10  and  C5_52 
REMARK    8  A    between atoms: C2_12  and  N_73 
REMARK    9  A    between atoms: C2_19  and  O2_24 
REMARK   10  A    between atoms: C2_21  and  O2_44 
REMARK   11  A    between atoms: S2_23  and  O6_65 
REMARK   12  A    between atoms: O2_24  and  S_54 
REMARK   13  A    between atoms: C1_28  and  O4_60 
REMARK   14  A    between atoms: C5_29  and  C6_38 
REMARK   15  A    between atoms: C5_30  and  C6_33 
REMARK   16  A    between atoms: S1_34  and  N_73 
REMARK   17  A    between atoms: C5_41  and  C6_46 
REMARK   18  A    between atoms: S_43  and  O2_44 
REMARK   19  A    between atoms: C6_46  and  O6_72 
REMARK   20  A    between atoms: O4_50  and  C4_71 
REMARK   21  A    between atoms: C1_56  and  O4_64 
REMARK   22  A    between atoms: O4_60  and  C4_83 
REMARK   23  A    between atoms: C4_61  and  O4_64 
REMARK   24  A    between atoms: S2_63  and  O6_72 
REMARK   25  A    between atoms: O6_65  and  C6_67 
REMARK   26  A    between atoms: C6_67  and  C5_75 
REMARK   27  A    between atoms: S_76  and  O2_78 
ROOT
ATOM      1  C2  IDS d 504     -11.619  46.331 170.322  0.00  0.00     0.226 C 
ATOM      2  O3  IDS d 504     -11.932  44.111 171.314  0.00  0.00    -0.218 OA
ATOM      3  O5  IDS d 504     -10.378  47.129 172.260  0.00  0.00    -0.318 OA
ATOM      4  C5  IDS d 504     -10.966  46.182 173.123  0.00  0.00     0.234 C 
ATOM      5  C1  IDS d 504     -10.267  46.698 170.900  0.00  0.00     0.269 C 
ATOM      6  C3  IDS d 504     -12.467  45.428 171.298  0.00  0.00     0.216 C 
ATOM      7  C4  IDS d 504     -12.422  45.946 172.727  0.00  0.00     0.189 C 
ENDROOT
BRANCH   5   8
ATOM      8  O4  SGN d 503      -9.414  45.600 170.754  0.00  0.00    -0.326 OA
BRANCH   8   9
ATOM      9  C4  SGN d 503      -8.086  45.941 170.522  0.00  0.00     0.180 C 
ATOM     10  C3  SGN d 503      -8.013  47.440 170.242  0.00  0.00     0.210 C 
ATOM     11  C2  SGN d 503      -6.552  47.849 170.208  0.00  0.00     0.207 C 
ATOM     12  O3  SGN d 503      -8.611  47.683 168.983  0.00  0.00    -0.218 OA
ATOM     13  C1  SGN d 503      -5.809  47.405 171.476  0.00  0.00     0.263 C 
ATOM     14  O5  SGN d 503      -5.940  46.014 171.634  0.00  0.00    -0.327 OA
ATOM     15  C5  SGN d 503      -7.261  45.594 171.773  0.00  0.00     0.179 C 
BRANCH  11  16
ATOM     16  N   SGN d 503      -6.407  49.280 170.009  0.00  0.00    -0.162 NA
BRANCH  16  17
ATOM     17  S1  SGN d 503      -5.476  49.779 168.771  0.00  0.00     0.227 S 
ATOM     18  O1S SGN d 503      -4.733  50.925 169.259  0.00  0.00    -0.577 OA
ATOM     19  O2S SGN d 503      -4.596  48.676 168.389  0.00  0.00    -0.577 OA
ATOM     20  O3S SGN d 503      -6.440  50.137 167.755  0.00  0.00    -0.577 OA
ENDBRANCH  16  17
ENDBRANCH  11  16
BRANCH  13  21
ATOM     21  O4  IDS d 502      -6.282  48.095 172.601  0.00  0.00    -0.326 OA
BRANCH  21  22
ATOM     22  C4  IDS d 502      -5.282  48.670 173.401  0.00  0.00     0.189 C 
ATOM     23  C3  IDS d 502      -5.336  50.204 173.273  0.00  0.00     0.216 C 
ATOM     24  O3  IDS d 502      -4.206  50.759 173.918  0.00  0.00    -0.218 OA
ATOM     25  C2  IDS d 502      -6.591  50.767 173.946  0.00  0.00     0.229 C 
ATOM     26  C1  IDS d 502      -6.789  50.197 175.348  0.00  0.00     0.301 C 
ATOM     27  O1  IDS d 502      -5.833  50.784 176.190  0.00  0.00    -0.187 OA
ATOM     28  O5  IDS d 502      -6.717  48.794 175.344  0.00  0.00    -0.316 OA
ATOM     29  C5  IDS d 502      -5.500  48.263 174.857  0.00  0.00     0.234 C 
BRANCH  25  30
ATOM     30  O2  IDS d 502      -7.690  50.385 173.163  0.00  0.00    -0.232 OA
BRANCH  30  31
ATOM     31  S   IDS d 502      -8.571  51.293 172.243  0.00  0.00     0.252 S 
ATOM     32  O3S IDS d 502      -7.629  52.109 171.521  0.00  0.00    -0.572 OA
ATOM     33  O2S IDS d 502      -9.429  52.042 173.132  0.00  0.00    -0.572 OA
ATOM     34  O1S IDS d 502      -9.313  50.424 171.372  0.00  0.00    -0.572 OA
ENDBRANCH  30  31
ENDBRANCH  25  30
BRANCH  29  35
ATOM     35  C6  IDS d 502      -5.430  46.763 175.104  0.00  0.00     0.216 C 
ATOM     36  O61 IDS d 502      -4.464  46.118 174.776  0.00  0.00    -0.646 OA
ATOM     37  O62 IDS d 502      -6.346  46.173 175.643  0.00  0.00    -0.646 OA
ENDBRANCH  29  35
ENDBRANCH  21  22
ENDBRANCH  13  21
BRANCH  15  38
ATOM     38  C6  SGN d 503      -7.162  44.121 172.065  0.00  0.00     0.198 C 
BRANCH  38  39
ATOM     39  O6  SGN d 503      -7.361  43.948 173.451  0.00  0.00    -0.235 OA
BRANCH  39  40
ATOM     40  S2  SGN d 503      -8.439  43.042 174.102  0.00  0.00     0.252 S 
ATOM     41  O4S SGN d 503      -7.857  41.769 174.360  0.00  0.00    -0.572 OA
ATOM     42  O5S SGN d 503      -8.870  43.704 175.330  0.00  0.00    -0.572 OA
ATOM     43  O6S SGN d 503      -9.430  42.929 173.104  0.00  0.00    -0.572 OA
ENDBRANCH  39  40
ENDBRANCH  38  39
ENDBRANCH  15  38
ENDBRANCH   8   9
ENDBRANCH   5   8
BRANCH   1  44
ATOM     44  O2  IDS d 504     -12.320  47.537 170.022  0.00  0.00    -0.233 OA
BRANCH  44  45
ATOM     45  S   IDS d 504     -13.129  47.837 168.747  0.00  0.00     0.252 S 
ATOM     46  O3S IDS d 504     -12.141  48.201 167.802  0.00  0.00    -0.572 OA
ATOM     47  O2S IDS d 504     -14.070  48.872 169.064  0.00  0.00    -0.572 OA
ATOM     48  O1S IDS d 504     -13.781  46.629 168.393  0.00  0.00    -0.572 OA
ENDBRANCH  44  45
ENDBRANCH   1  44
BRANCH   4  49
ATOM     49  C6  IDS d 504     -10.746  46.583 174.591  0.00  0.00     0.216 C 
ATOM     50  O62 IDS d 504      -9.833  47.347 174.913  0.00  0.00    -0.646 OA
ATOM     51  O61 IDS d 504     -11.461  46.137 175.479  0.00  0.00    -0.646 OA
ENDBRANCH   4  49
BRANCH   7  52
ATOM     52  O4  IDS d 504     -13.154  47.161 172.809  0.00  0.00    -0.326 OA
BRANCH  52  53
ATOM     53  C1  SGN d 505     -14.394  47.033 173.449  0.00  0.00     0.263 C 
ATOM     54  C2  SGN d 505     -15.518  47.604 172.606  0.00  0.00     0.207 C 
ATOM     55  C3  SGN d 505     -15.371  49.132 172.464  0.00  0.00     0.210 C 
ATOM     56  C4  SGN d 505     -15.357  49.690 173.916  0.00  0.00     0.180 C 
ATOM     57  O3  SGN d 505     -16.496  49.628 171.749  0.00  0.00    -0.218 OA
ATOM     58  C5  SGN d 505     -14.193  49.057 174.606  0.00  0.00     0.179 C 
ATOM     59  O5  SGN d 505     -14.371  47.677 174.692  0.00  0.00    -0.327 OA
BRANCH  54  60
ATOM     60  N   SGN d 505     -15.604  46.854 171.332  0.00  0.00    -0.162 NA
BRANCH  60  61
ATOM     61  S1  SGN d 505     -17.130  46.433 170.783  0.00  0.00     0.227 S 
ATOM     62  O3S SGN d 505     -18.025  46.612 171.870  0.00  0.00    -0.577 OA
ATOM     63  O1S SGN d 505     -17.438  47.282 169.651  0.00  0.00    -0.577 OA
ATOM     64  O2S SGN d 505     -17.022  45.041 170.414  0.00  0.00    -0.577 OA
ENDBRANCH  60  61
ENDBRANCH  54  60
BRANCH  56  65
ATOM     65  O4  SGN d 505     -15.161  51.084 174.031  0.00  0.00    -0.326 OA
BRANCH  65  66
ATOM     66  C1  IDS d 506     -16.159  51.970 174.408  0.00  0.00     0.269 C 
ATOM     67  C2  IDS d 506     -15.782  53.378 173.925  0.00  0.00     0.226 C 
ATOM     68  C3  IDS d 506     -16.640  54.501 174.572  0.00  0.00     0.219 C 
ATOM     69  O3  IDS d 506     -17.858  54.616 173.841  0.00  0.00    -0.218 OA
ATOM     70  C4  IDS d 506     -16.979  54.246 176.056  0.00  0.00     0.223 C 
ATOM     71  O4  IDS d 506     -15.861  54.645 176.814  0.00  0.00    -0.217 OA
ATOM     72  C5  IDS d 506     -17.267  52.761 176.300  0.00  0.00     0.237 C 
ATOM     73  O5  IDS d 506     -16.223  51.986 175.811  0.00  0.00    -0.318 OA
BRANCH  67  74
ATOM     74  O2  IDS d 506     -14.433  53.657 174.247  0.00  0.00    -0.233 OA
BRANCH  74  75
ATOM     75  S   IDS d 506     -13.411  54.596 173.473  0.00  0.00     0.252 S 
ATOM     76  O1S IDS d 506     -13.390  55.817 174.219  0.00  0.00    -0.572 OA
ATOM     77  O2S IDS d 506     -12.123  53.961 173.487  0.00  0.00    -0.572 OA
ATOM     78  O3S IDS d 506     -13.958  54.750 172.142  0.00  0.00    -0.572 OA
ENDBRANCH  74  75
ENDBRANCH  67  74
BRANCH  72  79
ATOM     79  C6  IDS d 506     -17.570  52.355 177.730  0.00  0.00     0.217 C 
ATOM     80  O61 IDS d 506     -18.721  52.387 178.144  0.00  0.00    -0.646 OA
ATOM     81  O62 IDS d 506     -16.695  52.005 178.502  0.00  0.00    -0.646 OA
ENDBRANCH  72  79
ENDBRANCH  65  66
ENDBRANCH  56  65
BRANCH  58  82
ATOM     82  C6  SGN d 505     -14.014  49.545 176.007  0.00  0.00     0.198 C 
BRANCH  82  83
ATOM     83  O6  SGN d 505     -13.533  48.452 176.713  0.00  0.00    -0.235 OA
BRANCH  83  84
ATOM     84  S2  SGN d 505     -13.874  48.056 178.142  0.00  0.00     0.252 S 
ATOM     85  O6S SGN d 505     -15.318  48.187 178.285  0.00  0.00    -0.572 OA
ATOM     86  O4S SGN d 505     -13.424  46.687 178.261  0.00  0.00    -0.572 OA
ATOM     87  O5S SGN d 505     -13.151  48.996 178.961  0.00  0.00    -0.572 OA
ENDBRANCH  83  84
ENDBRANCH  82  83
ENDBRANCH  58  82
ENDBRANCH  52  53
ENDBRANCH   7  52
TORSDOF 27

ENDMDL
MODEL 82
REMARK VINA RESULT:       5.6      2.888     10.907
REMARK  27 active torsions:
REMARK  status: ('A' for Active; 'I' for Inactive)
REMARK    1  A    between atoms: C2_1  and  O2_78 
REMARK    2  A    between atoms: C1_3  and  O4_50 
REMARK    3  A    between atoms: O4_5  and  C4_58 
REMARK    4  A    between atoms: O4_5  and  C1_27 
REMARK    5  A    between atoms: C2_6  and  N_39 
REMARK    6  A    between atoms: S1_9  and  N_39 
REMARK    7  A    between atoms: C6_10  and  C5_52 
REMARK    8  A    between atoms: C2_12  and  N_73 
REMARK    9  A    between atoms: C2_19  and  O2_24 
REMARK   10  A    between atoms: C2_21  and  O2_44 
REMARK   11  A    between atoms: S2_23  and  O6_65 
REMARK   12  A    between atoms: O2_24  and  S_54 
REMARK   13  A    between atoms: C1_28  and  O4_60 
REMARK   14  A    between atoms: C5_29  and  C6_38 
REMARK   15  A    between atoms: C5_30  and  C6_33 
REMARK   16  A    between atoms: S1_34  and  N_73 
REMARK   17  A    between atoms: C5_41  and  C6_46 
REMARK   18  A    between atoms: S_43  and  O2_44 
REMARK   19  A    between atoms: C6_46  and  O6_72 
REMARK   20  A    between atoms: O4_50  and  C4_71 
REMARK   21  A    between atoms: C1_56  and  O4_64 
REMARK   22  A    between atoms: O4_60  and  C4_83 
REMARK   23  A    between atoms: C4_61  and  O4_64 
REMARK   24  A    between atoms: S2_63  and  O6_72 
REMARK   25  A    between atoms: O6_65  and  C6_67 
REMARK   26  A    between atoms: C6_67  and  C5_75 
REMARK   27  A    between atoms: S_76  and  O2_78 
ROOT
ATOM      1  C2  IDS d 504     -10.198  46.711 171.193  0.00  0.00     0.226 C 
ATOM      2  O3  IDS d 504     -10.502  44.343 171.754  0.00  0.00    -0.218 OA
ATOM      3  O5  IDS d 504     -10.071  47.350 173.541  0.00  0.00    -0.318 OA
ATOM      4  C5  IDS d 504     -10.792  46.217 173.968  0.00  0.00     0.234 C 
ATOM      5  C1  IDS d 504      -9.313  47.150 172.343  0.00  0.00     0.269 C 
ATOM      6  C3  IDS d 504     -11.205  45.571 171.609  0.00  0.00     0.216 C 
ATOM      7  C4  IDS d 504     -11.870  45.865 172.945  0.00  0.00     0.189 C 
ENDROOT
BRANCH   5   8
ATOM      8  O4  SGN d 503      -8.298  46.201 172.504  0.00  0.00    -0.326 OA
BRANCH   8   9
ATOM      9  C4  SGN d 503      -7.016  46.739 172.510  0.00  0.00     0.180 C 
ATOM     10  C3  SGN d 503      -6.948  47.840 171.454  0.00  0.00     0.210 C 
ATOM     11  C2  SGN d 503      -5.627  48.571 171.611  0.00  0.00     0.207 C 
ATOM     12  O3  SGN d 503      -7.013  47.231 170.178  0.00  0.00    -0.218 OA
ATOM     13  C1  SGN d 503      -5.420  49.062 173.051  0.00  0.00     0.263 C 
ATOM     14  O5  SGN d 503      -5.500  47.971 173.935  0.00  0.00    -0.327 OA
ATOM     15  C5  SGN d 503      -6.733  47.324 173.905  0.00  0.00     0.179 C 
BRANCH  11  16
ATOM     16  N   SGN d 503      -5.521  49.678 170.676  0.00  0.00    -0.162 NA
BRANCH  16  17
ATOM     17  S1  SGN d 503      -4.489  49.513 169.429  0.00  0.00     0.227 S 
ATOM     18  O1S SGN d 503      -3.677  48.348 169.726  0.00  0.00    -0.577 OA
ATOM     19  O2S SGN d 503      -5.273  49.339 168.207  0.00  0.00    -0.577 OA
ATOM     20  O3S SGN d 503      -3.727  50.742 169.465  0.00  0.00    -0.577 OA
ENDBRANCH  16  17
ENDBRANCH  11  16
BRANCH  13  21
ATOM     21  O4  IDS d 502      -6.349  50.058 173.380  0.00  0.00    -0.326 OA
BRANCH  21  22
ATOM     22  C4  IDS d 502      -5.834  51.365 173.385  0.00  0.00     0.189 C 
ATOM     23  C3  IDS d 502      -6.870  52.331 172.780  0.00  0.00     0.216 C 
ATOM     24  O3  IDS d 502      -6.268  53.599 172.605  0.00  0.00    -0.218 OA
ATOM     25  C2  IDS d 502      -8.072  52.500 173.713  0.00  0.00     0.229 C 
ATOM     26  C1  IDS d 502      -7.642  52.782 175.149  0.00  0.00     0.301 C 
ATOM     27  O1  IDS d 502      -7.162  54.099 175.205  0.00  0.00    -0.187 OA
ATOM     28  O5  IDS d 502      -6.697  51.842 175.593  0.00  0.00    -0.316 OA
ATOM     29  C5  IDS d 502      -5.515  51.779 174.820  0.00  0.00     0.234 C 
BRANCH  25  30
ATOM     30  O2  IDS d 502      -8.783  51.291 173.701  0.00  0.00    -0.232 OA
BRANCH  30  31
ATOM     31  S   IDS d 502     -10.218  51.018 174.260  0.00  0.00     0.252 S 
ATOM     32  O3S IDS d 502     -10.897  52.284 174.163  0.00  0.00    -0.572 OA
ATOM     33  O2S IDS d 502     -10.031  50.559 175.617  0.00  0.00    -0.572 OA
ATOM     34  O1S IDS d 502     -10.818  50.017 173.423  0.00  0.00    -0.572 OA
ENDBRANCH  30  31
ENDBRANCH  25  30
BRANCH  29  35
ATOM     35  C6  IDS d 502      -4.470  50.909 175.504  0.00  0.00     0.216 C 
ATOM     36  O61 IDS d 502      -4.675  50.416 176.586  0.00  0.00    -0.646 OA
ATOM     37  O62 IDS d 502      -3.400  50.682 174.973  0.00  0.00    -0.646 OA
ENDBRANCH  29  35
ENDBRANCH  21  22
ENDBRANCH  13  21
BRANCH  15  38
ATOM     38  C6  SGN d 503      -6.651  46.300 175.004  0.00  0.00     0.198 C 
BRANCH  38  39
ATOM     39  O6  SGN d 503      -5.743  46.784 175.969  0.00  0.00    -0.235 OA
BRANCH  39  40
ATOM     40  S2  SGN d 503      -4.818  45.910 176.857  0.00  0.00     0.252 S 
ATOM     41  O4S SGN d 503      -5.581  44.818 177.358  0.00  0.00    -0.572 OA
ATOM     42  O5S SGN d 503      -3.713  45.463 176.013  0.00  0.00    -0.572 OA
ATOM     43  O6S SGN d 503      -4.453  46.772 177.913  0.00  0.00    -0.572 OA
ENDBRANCH  39  40
ENDBRANCH  38  39
ENDBRANCH  15  38
ENDBRANCH   8   9
ENDBRANCH   5   8
BRANCH   1  44
ATOM     44  O2  IDS d 504     -10.906  47.851 170.712  0.00  0.00    -0.233 OA
BRANCH  44  45
ATOM     45  S   IDS d 504     -10.557  48.696 169.474  0.00  0.00     0.252 S 
ATOM     46  O3S IDS d 504      -9.606  49.625 169.961  0.00  0.00    -0.572 OA
ATOM     47  O2S IDS d 504     -11.774  49.278 168.988  0.00  0.00    -0.572 OA
ATOM     48  O1S IDS d 504      -9.990  47.805 168.528  0.00  0.00    -0.572 OA
ENDBRANCH  44  45
ENDBRANCH   1  44
BRANCH   4  49
ATOM     49  C6  IDS d 504     -11.297  46.412 175.407  0.00  0.00     0.216 C 
ATOM     50  O62 IDS d 504     -11.063  47.451 176.029  0.00  0.00    -0.646 OA
ATOM     51  O61 IDS d 504     -11.928  45.532 175.978  0.00  0.00    -0.646 OA
ENDBRANCH   4  49
BRANCH   7  52
ATOM     52  O4  IDS d 504     -12.771  46.952 172.791  0.00  0.00    -0.326 OA
BRANCH  52  53
ATOM     53  C1  SGN d 505     -14.103  46.562 172.600  0.00  0.00     0.263 C 
ATOM     54  C2  SGN d 505     -14.903  47.637 171.891  0.00  0.00     0.207 C 
ATOM     55  C3  SGN d 505     -15.046  48.888 172.780  0.00  0.00     0.210 C 
ATOM     56  C4  SGN d 505     -15.721  48.395 174.093  0.00  0.00     0.180 C 
ATOM     57  O3  SGN d 505     -15.880  49.824 172.111  0.00  0.00    -0.218 OA
ATOM     58  C5  SGN d 505     -14.811  47.366 174.681  0.00  0.00     0.179 C 
ATOM     59  O5  SGN d 505     -14.706  46.267 173.829  0.00  0.00    -0.327 OA
BRANCH  54  60
ATOM     60  N   SGN d 505     -14.321  47.875 170.550  0.00  0.00    -0.162 NA
BRANCH  60  61
ATOM     61  S1  SGN d 505     -14.848  46.900 169.293  0.00  0.00     0.227 S 
ATOM     62  O3S SGN d 505     -13.858  45.900 169.102  0.00  0.00    -0.577 OA
ATOM     63  O1S SGN d 505     -16.135  46.357 169.671  0.00  0.00    -0.577 OA
ATOM     64  O2S SGN d 505     -14.934  47.779 168.151  0.00  0.00    -0.577 OA
ENDBRANCH  60  61
ENDBRANCH  54  60
BRANCH  56  65
ATOM     65  O4  SGN d 505     -15.891  49.376 175.095  0.00  0.00    -0.326 OA
BRANCH  65  66
ATOM     66  C1  IDS d 506     -16.733  50.470 174.963  0.00  0.00     0.269 C 
ATOM     67  C2  IDS d 506     -16.387  51.497 176.050  0.00  0.00     0.226 C 
ATOM     68  C3  IDS d 506     -17.468  52.601 176.219  0.00  0.00     0.219 C 
ATOM     69  O3  IDS d 506     -17.239  53.612 175.241  0.00  0.00    -0.218 OA
ATOM     70  C4  IDS d 506     -18.914  52.083 176.062  0.00  0.00     0.223 C 
ATOM     71  O4  IDS d 506     -19.289  51.508 177.291  0.00  0.00    -0.217 OA
ATOM     72  C5  IDS d 506     -18.995  51.030 174.952  0.00  0.00     0.237 C 
ATOM     73  O5  IDS d 506     -18.052  50.033 175.170  0.00  0.00    -0.318 OA
BRANCH  67  74
ATOM     74  O2  IDS d 506     -16.259  50.855 177.303  0.00  0.00    -0.233 OA
BRANCH  74  75
ATOM     75  S   IDS d 506     -15.017  50.871 178.295  0.00  0.00     0.252 S 
ATOM     76  O1S IDS d 506     -14.020  51.652 177.629  0.00  0.00    -0.572 OA
ATOM     77  O2S IDS d 506     -15.431  51.498 179.518  0.00  0.00    -0.572 OA
ATOM     78  O3S IDS d 506     -14.638  49.485 178.464  0.00  0.00    -0.572 OA
ENDBRANCH  74  75
ENDBRANCH  67  74
BRANCH  72  79
ATOM     79  C6  IDS d 506     -20.353  50.396 174.716  0.00  0.00     0.217 C 
ATOM     80  O61 IDS d 506     -21.299  51.088 174.364  0.00  0.00    -0.646 OA
ATOM     81  O62 IDS d 506     -20.547  49.204 174.881  0.00  0.00    -0.646 OA
ENDBRANCH  72  79
ENDBRANCH  65  66
ENDBRANCH  56  65
BRANCH  58  82
ATOM     82  C6  SGN d 505     -15.303  46.837 175.989  0.00  0.00     0.198 C 
BRANCH  82  83
ATOM     83  O6  SGN d 505     -16.427  46.087 175.677  0.00  0.00    -0.235 OA
BRANCH  83  84
ATOM     84  S2  SGN d 505     -17.793  46.154 176.344  0.00  0.00     0.252 S 
ATOM     85  O6S SGN d 505     -17.940  44.939 177.134  0.00  0.00    -0.572 OA
ATOM     86  O4S SGN d 505     -17.746  47.347 177.159  0.00  0.00    -0.572 OA
ATOM     87  O5S SGN d 505     -18.728  46.216 175.248  0.00  0.00    -0.572 OA
ENDBRANCH  83  84
ENDBRANCH  82  83
ENDBRANCH  58  82
ENDBRANCH  52  53
ENDBRANCH   7  52
TORSDOF 27

ENDMDL
MODEL 83
REMARK VINA RESULT:       5.6      1.920      2.660
REMARK  27 active torsions:
REMARK  status: ('A' for Active; 'I' for Inactive)
REMARK    1  A    between atoms: C2_1  and  O2_78 
REMARK    2  A    between atoms: C1_3  and  O4_50 
REMARK    3  A    between atoms: O4_5  and  C4_58 
REMARK    4  A    between atoms: O4_5  and  C1_27 
REMARK    5  A    between atoms: C2_6  and  N_39 
REMARK    6  A    between atoms: S1_9  and  N_39 
REMARK    7  A    between atoms: C6_10  and  C5_52 
REMARK    8  A    between atoms: C2_12  and  N_73 
REMARK    9  A    between atoms: C2_19  and  O2_24 
REMARK   10  A    between atoms: C2_21  and  O2_44 
REMARK   11  A    between atoms: S2_23  and  O6_65 
REMARK   12  A    between atoms: O2_24  and  S_54 
REMARK   13  A    between atoms: C1_28  and  O4_60 
REMARK   14  A    between atoms: C5_29  and  C6_38 
REMARK   15  A    between atoms: C5_30  and  C6_33 
REMARK   16  A    between atoms: S1_34  and  N_73 
REMARK   17  A    between atoms: C5_41  and  C6_46 
REMARK   18  A    between atoms: S_43  and  O2_44 
REMARK   19  A    between atoms: C6_46  and  O6_72 
REMARK   20  A    between atoms: O4_50  and  C4_71 
REMARK   21  A    between atoms: C1_56  and  O4_64 
REMARK   22  A    between atoms: O4_60  and  C4_83 
REMARK   23  A    between atoms: C4_61  and  O4_64 
REMARK   24  A    between atoms: S2_63  and  O6_72 
REMARK   25  A    between atoms: O6_65  and  C6_67 
REMARK   26  A    between atoms: C6_67  and  C5_75 
REMARK   27  A    between atoms: S_76  and  O2_78 
ROOT
ATOM      1  C2  IDS d 504     -13.962  51.341 175.863  0.00  0.00     0.226 C 
ATOM      2  O3  IDS d 504     -13.512  50.624 178.165  0.00  0.00    -0.218 OA
ATOM      3  O5  IDS d 504     -14.106  49.041 175.072  0.00  0.00    -0.318 OA
ATOM      4  C5  IDS d 504     -13.316  48.546 176.129  0.00  0.00     0.234 C 
ATOM      5  C1  IDS d 504     -14.861  50.213 175.398  0.00  0.00     0.269 C 
ATOM      6  C3  IDS d 504     -12.885  50.861 176.911  0.00  0.00     0.216 C 
ATOM      7  C4  IDS d 504     -12.228  49.557 176.486  0.00  0.00     0.189 C 
ENDROOT
BRANCH   5   8
ATOM      8  O4  SGN d 503     -15.816  49.975 176.391  0.00  0.00    -0.326 OA
BRANCH   8   9
ATOM      9  C4  SGN d 503     -17.119  49.881 175.914  0.00  0.00     0.180 C 
ATOM     10  C3  SGN d 503     -17.197  50.611 174.575  0.00  0.00     0.210 C 
ATOM     11  C2  SGN d 503     -18.551  50.323 173.952  0.00  0.00     0.207 C 
ATOM     12  O3  SGN d 503     -17.065  51.998 174.821  0.00  0.00    -0.218 OA
ATOM     13  C1  SGN d 503     -18.826  48.815 173.868  0.00  0.00     0.263 C 
ATOM     14  O5  SGN d 503     -18.731  48.248 175.151  0.00  0.00    -0.327 OA
ATOM     15  C5  SGN d 503     -17.471  48.395 175.729  0.00  0.00     0.179 C 
BRANCH  11  16
ATOM     16  N   SGN d 503     -18.671  50.936 172.641  0.00  0.00    -0.162 NA
BRANCH  16  17
ATOM     17  S1  SGN d 503     -19.807  52.086 172.448  0.00  0.00     0.227 S 
ATOM     18  O1S SGN d 503     -19.095  53.308 172.129  0.00  0.00    -0.577 OA
ATOM     19  O2S SGN d 503     -20.698  51.670 171.366  0.00  0.00    -0.577 OA
ATOM     20  O3S SGN d 503     -20.446  52.140 173.744  0.00  0.00    -0.577 OA
ENDBRANCH  16  17
ENDBRANCH  11  16
BRANCH  13  21
ATOM     21  O4  IDS d 502     -17.949  48.195 172.967  0.00  0.00    -0.326 OA
BRANCH  21  22
ATOM     22  C4  IDS d 502     -18.573  47.566 171.877  0.00  0.00     0.189 C 
ATOM     23  C3  IDS d 502     -17.809  47.897 170.582  0.00  0.00     0.216 C 
ATOM     24  O3  IDS d 502     -18.555  47.429 169.475  0.00  0.00    -0.218 OA
ATOM     25  C2  IDS d 502     -16.442  47.207 170.559  0.00  0.00     0.229 C 
ATOM     26  C1  IDS d 502     -16.545  45.729 170.924  0.00  0.00     0.301 C 
ATOM     27  O1  IDS d 502     -17.125  45.056 169.839  0.00  0.00    -0.187 OA
ATOM     28  O5  IDS d 502     -17.263  45.547 172.119  0.00  0.00    -0.316 OA
ATOM     29  C5  IDS d 502     -18.582  46.055 172.101  0.00  0.00     0.234 C 
BRANCH  25  30
ATOM     30  O2  IDS d 502     -15.640  47.838 171.522  0.00  0.00    -0.232 OA
BRANCH  30  31
ATOM     31  S   IDS d 502     -14.574  48.959 171.294  0.00  0.00     0.252 S 
ATOM     32  O3S IDS d 502     -13.375  48.456 171.912  0.00  0.00    -0.572 OA
ATOM     33  O2S IDS d 502     -15.105  50.143 171.928  0.00  0.00    -0.572 OA
ATOM     34  O1S IDS d 502     -14.423  49.121 169.874  0.00  0.00    -0.572 OA
ENDBRANCH  30  31
ENDBRANCH  25  30
BRANCH  29  35
ATOM     35  C6  IDS d 502     -19.346  45.613 173.342  0.00  0.00     0.216 C 
ATOM     36  O61 IDS d 502     -20.495  45.938 173.519  0.00  0.00    -0.646 OA
ATOM     37  O62 IDS d 502     -18.819  44.914 174.185  0.00  0.00    -0.646 OA
ENDBRANCH  29  35
ENDBRANCH  21  22
ENDBRANCH  13  21
BRANCH  15  38
ATOM     38  C6  SGN d 503     -17.548  47.610 177.010  0.00  0.00     0.198 C 
BRANCH  38  39
ATOM     39  O6  SGN d 503     -17.556  46.240 176.669  0.00  0.00    -0.235 OA
BRANCH  39  40
ATOM     40  S2  SGN d 503     -16.339  45.282 176.752  0.00  0.00     0.252 S 
ATOM     41  O4S SGN d 503     -15.826  45.096 175.437  0.00  0.00    -0.572 OA
ATOM     42  O5S SGN d 503     -15.361  45.909 177.636  0.00  0.00    -0.572 OA
ATOM     43  O6S SGN d 503     -16.893  44.076 177.231  0.00  0.00    -0.572 OA
ENDBRANCH  39  40
ENDBRANCH  38  39
ENDBRANCH  15  38
ENDBRANCH   8   9
ENDBRANCH   5   8
BRANCH   1  44
ATOM     44  O2  IDS d 504     -13.327  51.908 174.719  0.00  0.00    -0.233 OA
BRANCH  44  45
ATOM     45  S   IDS d 504     -13.524  53.332 174.168  0.00  0.00     0.252 S 
ATOM     46  O3S IDS d 504     -14.197  53.124 172.941  0.00  0.00    -0.572 OA
ATOM     47  O2S IDS d 504     -12.229  53.935 174.051  0.00  0.00    -0.572 OA
ATOM     48  O1S IDS d 504     -14.335  54.015 175.108  0.00  0.00    -0.572 OA
ENDBRANCH  44  45
ENDBRANCH   1  44
BRANCH   4  49
ATOM     49  C6  IDS d 504     -12.811  47.130 175.805  0.00  0.00     0.216 C 
ATOM     50  O62 IDS d 504     -12.144  46.490 176.621  0.00  0.00    -0.646 OA
ATOM     51  O61 IDS d 504     -13.045  46.611 174.722  0.00  0.00    -0.646 OA
ENDBRANCH   4  49
BRANCH   7  52
ATOM     52  O4  IDS d 504     -11.394  49.796 175.361  0.00  0.00    -0.326 OA
BRANCH  52  53
ATOM     53  C1  SGN d 505     -10.071  49.368 175.535  0.00  0.00     0.263 C 
ATOM     54  C2  SGN d 505      -9.080  50.423 175.084  0.00  0.00     0.207 C 
ATOM     55  C3  SGN d 505      -9.165  50.636 173.560  0.00  0.00     0.210 C 
ATOM     56  C4  SGN d 505      -8.897  49.240 172.925  0.00  0.00     0.180 C 
ATOM     57  O3  SGN d 505      -8.155  51.560 173.176  0.00  0.00    -0.218 OA
ATOM     58  C5  SGN d 505      -9.958  48.324 173.443  0.00  0.00     0.179 C 
ATOM     59  O5  SGN d 505      -9.844  48.182 174.826  0.00  0.00    -0.327 OA
BRANCH  54  60
ATOM     60  N   SGN d 505      -9.257  51.643 175.905  0.00  0.00    -0.162 NA
BRANCH  60  61
ATOM     61  S1  SGN d 505      -7.889  52.305 176.612  0.00  0.00     0.227 S 
ATOM     62  O3S SGN d 505      -8.270  52.765 177.900  0.00  0.00    -0.577 OA
ATOM     63  O1S SGN d 505      -6.876  51.272 176.657  0.00  0.00    -0.577 OA
ATOM     64  O2S SGN d 505      -7.520  53.403 175.749  0.00  0.00    -0.577 OA
ENDBRANCH  60  61
ENDBRANCH  54  60
BRANCH  56  65
ATOM     65  O4  SGN d 505      -8.994  49.183 171.517  0.00  0.00    -0.326 OA
BRANCH  65  66
ATOM     66  C1  IDS d 506      -7.900  49.270 170.669  0.00  0.00     0.269 C 
ATOM     67  C2  IDS d 506      -8.392  49.215 169.216  0.00  0.00     0.226 C 
ATOM     68  C3  IDS d 506      -7.252  48.965 168.190  0.00  0.00     0.219 C 
ATOM     69  O3  IDS d 506      -6.627  50.211 167.894  0.00  0.00    -0.218 OA
ATOM     70  C4  IDS d 506      -6.173  47.980 168.688  0.00  0.00     0.223 C 
ATOM     71  O4  IDS d 506      -6.667  46.678 168.480  0.00  0.00    -0.217 OA
ATOM     72  C5  IDS d 506      -5.891  48.194 170.179  0.00  0.00     0.237 C 
ATOM     73  O5  IDS d 506      -7.078  48.153 170.900  0.00  0.00    -0.318 OA
BRANCH  67  74
ATOM     74  O2  IDS d 506      -9.325  48.164 169.057  0.00  0.00    -0.233 OA
BRANCH  74  75
ATOM     75  S   IDS d 506     -10.863  48.263 168.673  0.00  0.00     0.252 S 
ATOM     76  O1S IDS d 506     -10.905  48.082 167.255  0.00  0.00    -0.572 OA
ATOM     77  O2S IDS d 506     -11.561  47.207 169.350  0.00  0.00    -0.572 OA
ATOM     78  O3S IDS d 506     -11.282  49.584 169.092  0.00  0.00    -0.572 OA
ENDBRANCH  74  75
ENDBRANCH  67  74
BRANCH  72  79
ATOM     79  C6  IDS d 506      -4.881  47.260 170.819  0.00  0.00     0.217 C 
ATOM     80  O61 IDS d 506      -3.683  47.480 170.699  0.00  0.00    -0.646 OA
ATOM     81  O62 IDS d 506      -5.221  46.273 171.448  0.00  0.00    -0.646 OA
ENDBRANCH  72  79
ENDBRANCH  65  66
ENDBRANCH  56  65
BRANCH  58  82
ATOM     82  C6  SGN d 505      -9.865  46.947 172.872  0.00  0.00     0.198 C 
BRANCH  82  83
ATOM     83  O6  SGN d 505      -9.784  46.103 173.969  0.00  0.00    -0.235 OA
BRANCH  83  84
ATOM     84  S2  SGN d 505      -9.914  44.587 173.977  0.00  0.00     0.252 S 
ATOM     85  O6S SGN d 505     -10.027  44.179 175.371  0.00  0.00    -0.572 OA
ATOM     86  O4S SGN d 505     -11.114  44.317 173.218  0.00  0.00    -0.572 OA
ATOM     87  O5S SGN d 505      -8.699  44.116 173.361  0.00  0.00    -0.572 OA
ENDBRANCH  83  84
ENDBRANCH  82  83
ENDBRANCH  58  82
ENDBRANCH  52  53
ENDBRANCH   7  52
TORSDOF 27

ENDMDL
MODEL 84
REMARK VINA RESULT:       5.6      3.260     10.375
REMARK  27 active torsions:
REMARK  status: ('A' for Active; 'I' for Inactive)
REMARK    1  A    between atoms: C2_1  and  O2_78 
REMARK    2  A    between atoms: C1_3  and  O4_50 
REMARK    3  A    between atoms: O4_5  and  C4_58 
REMARK    4  A    between atoms: O4_5  and  C1_27 
REMARK    5  A    between atoms: C2_6  and  N_39 
REMARK    6  A    between atoms: S1_9  and  N_39 
REMARK    7  A    between atoms: C6_10  and  C5_52 
REMARK    8  A    between atoms: C2_12  and  N_73 
REMARK    9  A    between atoms: C2_19  and  O2_24 
REMARK   10  A    between atoms: C2_21  and  O2_44 
REMARK   11  A    between atoms: S2_23  and  O6_65 
REMARK   12  A    between atoms: O2_24  and  S_54 
REMARK   13  A    between atoms: C1_28  and  O4_60 
REMARK   14  A    between atoms: C5_29  and  C6_38 
REMARK   15  A    between atoms: C5_30  and  C6_33 
REMARK   16  A    between atoms: S1_34  and  N_73 
REMARK   17  A    between atoms: C5_41  and  C6_46 
REMARK   18  A    between atoms: S_43  and  O2_44 
REMARK   19  A    between atoms: C6_46  and  O6_72 
REMARK   20  A    between atoms: O4_50  and  C4_71 
REMARK   21  A    between atoms: C1_56  and  O4_64 
REMARK   22  A    between atoms: O4_60  and  C4_83 
REMARK   23  A    between atoms: C4_61  and  O4_64 
REMARK   24  A    between atoms: S2_63  and  O6_72 
REMARK   25  A    between atoms: O6_65  and  C6_67 
REMARK   26  A    between atoms: C6_67  and  C5_75 
REMARK   27  A    between atoms: S_76  and  O2_78 
ROOT
ATOM      1  C2  IDS d 504     -12.580  45.850 172.787  0.00  0.00     0.226 C 
ATOM      2  O3  IDS d 504     -12.961  45.507 175.186  0.00  0.00    -0.218 OA
ATOM      3  O5  IDS d 504     -11.078  47.724 173.195  0.00  0.00    -0.318 OA
ATOM      4  C5  IDS d 504     -11.643  48.003 174.456  0.00  0.00     0.234 C 
ATOM      5  C1  IDS d 504     -11.149  46.348 172.809  0.00  0.00     0.269 C 
ATOM      6  C3  IDS d 504     -13.388  46.281 174.072  0.00  0.00     0.216 C 
ATOM      7  C4  IDS d 504     -13.148  47.741 174.424  0.00  0.00     0.189 C 
ENDROOT
BRANCH   5   8
ATOM      8  O4  SGN d 503     -10.407  45.515 173.653  0.00  0.00    -0.326 OA
BRANCH   8   9
ATOM      9  C4  SGN d 503      -9.156  45.172 173.153  0.00  0.00     0.180 C 
ATOM     10  C3  SGN d 503      -9.232  45.153 171.628  0.00  0.00     0.210 C 
ATOM     11  C2  SGN d 503      -7.825  44.996 171.081  0.00  0.00     0.207 C 
ATOM     12  O3  SGN d 503     -10.026  44.047 171.241  0.00  0.00    -0.218 OA
ATOM     13  C1  SGN d 503      -6.874  46.057 171.653  0.00  0.00     0.263 C 
ATOM     14  O5  SGN d 503      -6.880  45.984 173.058  0.00  0.00    -0.327 OA
ATOM     15  C5  SGN d 503      -8.132  46.222 173.619  0.00  0.00     0.179 C 
BRANCH  11  16
ATOM     16  N   SGN d 503      -7.815  45.034 169.629  0.00  0.00    -0.162 NA
BRANCH  16  17
ATOM     17  S1  SGN d 503      -7.009  43.854 168.851  0.00  0.00     0.227 S 
ATOM     18  O1S SGN d 503      -7.949  43.277 167.908  0.00  0.00    -0.577 OA
ATOM     19  O2S SGN d 503      -5.857  44.453 168.180  0.00  0.00    -0.577 OA
ATOM     20  O3S SGN d 503      -6.657  42.937 169.912  0.00  0.00    -0.577 OA
ENDBRANCH  16  17
ENDBRANCH  11  16
BRANCH  13  21
ATOM     21  O4  IDS d 502      -7.224  47.338 171.205  0.00  0.00    -0.326 OA
BRANCH  21  22
ATOM     22  C4  IDS d 502      -6.149  48.112 170.739  0.00  0.00     0.189 C 
ATOM     23  C3  IDS d 502      -6.343  48.418 169.242  0.00  0.00     0.216 C 
ATOM     24  O3  IDS d 502      -5.166  49.021 168.740  0.00  0.00    -0.218 OA
ATOM     25  C2  IDS d 502      -7.504  49.394 169.028  0.00  0.00     0.229 C 
ATOM     26  C1  IDS d 502      -7.414  50.599 169.959  0.00  0.00     0.301 C 
ATOM     27  O1  IDS d 502      -6.376  51.423 169.498  0.00  0.00    -0.187 OA
ATOM     28  O5  IDS d 502      -7.235  50.201 171.295  0.00  0.00    -0.316 OA
ATOM     29  C5  IDS d 502      -6.082  49.417 171.531  0.00  0.00     0.234 C 
BRANCH  25  30
ATOM     30  O2  IDS d 502      -8.689  48.703 169.324  0.00  0.00    -0.232 OA
BRANCH  30  31
ATOM     31  S   IDS d 502      -9.707  48.073 168.318  0.00  0.00     0.252 S 
ATOM     32  O3S IDS d 502     -10.604  47.301 169.138  0.00  0.00    -0.572 OA
ATOM     33  O2S IDS d 502      -8.920  47.277 167.406  0.00  0.00    -0.572 OA
ATOM     34  O1S IDS d 502     -10.378  49.158 167.657  0.00  0.00    -0.572 OA
ENDBRANCH  30  31
ENDBRANCH  25  30
BRANCH  29  35
ATOM     35  C6  IDS d 502      -5.855  49.230 173.024  0.00  0.00     0.216 C 
ATOM     36  O61 IDS d 502      -6.689  49.561 173.831  0.00  0.00    -0.646 OA
ATOM     37  O62 IDS d 502      -4.826  48.736 173.444  0.00  0.00    -0.646 OA
ENDBRANCH  29  35
ENDBRANCH  21  22
ENDBRANCH  13  21
BRANCH  15  38
ATOM     38  C6  SGN d 503      -7.887  46.235 175.103  0.00  0.00     0.198 C 
BRANCH  38  39
ATOM     39  O6  SGN d 503      -6.943  45.225 175.387  0.00  0.00    -0.235 OA
BRANCH  39  40
ATOM     40  S2  SGN d 503      -7.248  43.877 176.092  0.00  0.00     0.252 S 
ATOM     41  O4S SGN d 503      -6.331  43.718 177.169  0.00  0.00    -0.572 OA
ATOM     42  O5S SGN d 503      -8.630  43.941 176.558  0.00  0.00    -0.572 OA
ATOM     43  O6S SGN d 503      -6.997  42.912 175.094  0.00  0.00    -0.572 OA
ENDBRANCH  39  40
ENDBRANCH  38  39
ENDBRANCH  15  38
ENDBRANCH   8   9
ENDBRANCH   5   8
BRANCH   1  44
ATOM     44  O2  IDS d 504     -13.211  46.350 171.610  0.00  0.00    -0.233 OA
BRANCH  44  45
ATOM     45  S   IDS d 504     -13.599  45.541 170.359  0.00  0.00     0.252 S 
ATOM     46  O3S IDS d 504     -14.787  44.877 170.746  0.00  0.00    -0.572 OA
ATOM     47  O2S IDS d 504     -12.500  44.676 170.044  0.00  0.00    -0.572 OA
ATOM     48  O1S IDS d 504     -13.832  46.486 169.328  0.00  0.00    -0.572 OA
ENDBRANCH  44  45
ENDBRANCH   1  44
BRANCH   4  49
ATOM     49  C6  IDS d 504     -11.235  49.407 174.930  0.00  0.00     0.216 C 
ATOM     50  O62 IDS d 504     -11.284  50.376 174.168  0.00  0.00    -0.646 OA
ATOM     51  O61 IDS d 504     -10.833  49.595 176.071  0.00  0.00    -0.646 OA
ENDBRANCH   4  49
BRANCH   7  52
ATOM     52  O4  IDS d 504     -13.767  48.568 173.449  0.00  0.00    -0.326 OA
BRANCH  52  53
ATOM     53  C1  SGN d 505     -15.119  48.833 173.707  0.00  0.00     0.263 C 
ATOM     54  C2  SGN d 505     -15.846  49.288 172.456  0.00  0.00     0.207 C 
ATOM     55  C3  SGN d 505     -15.320  50.658 171.987  0.00  0.00     0.210 C 
ATOM     56  C4  SGN d 505     -15.523  51.622 173.192  0.00  0.00     0.180 C 
ATOM     57  O3  SGN d 505     -16.096  51.082 170.873  0.00  0.00    -0.218 OA
ATOM     58  C5  SGN d 505     -14.735  51.056 174.329  0.00  0.00     0.179 C 
ATOM     59  O5  SGN d 505     -15.244  49.811 174.700  0.00  0.00    -0.327 OA
BRANCH  54  60
ATOM     60  N   SGN d 505     -15.797  48.209 171.442  0.00  0.00    -0.162 NA
BRANCH  60  61
ATOM     61  S1  SGN d 505     -17.257  47.589 170.902  0.00  0.00     0.227 S 
ATOM     62  O3S SGN d 505     -17.481  46.379 171.610  0.00  0.00    -0.577 OA
ATOM     63  O1S SGN d 505     -18.276  48.587 171.151  0.00  0.00    -0.577 OA
ATOM     64  O2S SGN d 505     -17.058  47.344 169.492  0.00  0.00    -0.577 OA
ENDBRANCH  60  61
ENDBRANCH  54  60
BRANCH  56  65
ATOM     65  O4  SGN d 505     -15.043  52.937 173.008  0.00  0.00    -0.326 OA
BRANCH  65  66
ATOM     66  C1  IDS d 506     -15.682  53.884 172.222  0.00  0.00     0.269 C 
ATOM     67  C2  IDS d 506     -15.135  55.274 172.575  0.00  0.00     0.226 C 
ATOM     68  C3  IDS d 506     -16.000  56.437 172.014  0.00  0.00     0.219 C 
ATOM     69  O3  IDS d 506     -15.620  56.670 170.660  0.00  0.00    -0.218 OA
ATOM     70  C4  IDS d 506     -17.517  56.158 172.057  0.00  0.00     0.223 C 
ATOM     71  O4  IDS d 506     -17.957  56.444 173.364  0.00  0.00    -0.217 OA
ATOM     72  C5  IDS d 506     -17.810  54.692 171.721  0.00  0.00     0.237 C 
ATOM     73  O5  IDS d 506     -17.052  53.856 172.532  0.00  0.00    -0.318 OA
BRANCH  67  74
ATOM     74  O2  IDS d 506     -15.091  55.438 173.979  0.00  0.00    -0.233 OA
BRANCH  74  75
ATOM     75  S   IDS d 506     -14.453  56.632 174.811  0.00  0.00     0.252 S 
ATOM     76  O1S IDS d 506     -15.463  57.644 174.843  0.00  0.00    -0.572 OA
ATOM     77  O2S IDS d 506     -14.164  56.150 176.133  0.00  0.00    -0.572 OA
ATOM     78  O3S IDS d 506     -13.271  57.028 174.077  0.00  0.00    -0.572 OA
ENDBRANCH  74  75
ENDBRANCH  67  74
BRANCH  72  79
ATOM     79  C6  IDS d 506     -19.264  54.262 171.772  0.00  0.00     0.217 C 
ATOM     80  O61 IDS d 506     -19.685  53.642 172.739  0.00  0.00    -0.646 OA
ATOM     81  O62 IDS d 506     -20.041  54.500 170.863  0.00  0.00    -0.646 OA
ENDBRANCH  72  79
ENDBRANCH  65  66
ENDBRANCH  56  65
BRANCH  58  82
ATOM     82  C6  SGN d 505     -14.788  51.911 175.553  0.00  0.00     0.198 C 
BRANCH  82  83
ATOM     83  O6  SGN d 505     -15.260  51.080 176.557  0.00  0.00    -0.235 OA
BRANCH  83  84
ATOM     84  S2  SGN d 505     -15.131  51.284 178.060  0.00  0.00     0.252 S 
ATOM     85  O6S SGN d 505     -14.021  52.205 178.268  0.00  0.00    -0.572 OA
ATOM     86  O4S SGN d 505     -16.401  51.841 178.465  0.00  0.00    -0.572 OA
ATOM     87  O5S SGN d 505     -14.861  49.968 178.582  0.00  0.00    -0.572 OA
ENDBRANCH  83  84
ENDBRANCH  82  83
ENDBRANCH  58  82
ENDBRANCH  52  53
ENDBRANCH   7  52
TORSDOF 27

ENDMDL
MODEL 85
REMARK VINA RESULT:       5.6      4.618      8.065
REMARK  27 active torsions:
REMARK  status: ('A' for Active; 'I' for Inactive)
REMARK    1  A    between atoms: C2_1  and  O2_78 
REMARK    2  A    between atoms: C1_3  and  O4_50 
REMARK    3  A    between atoms: O4_5  and  C4_58 
REMARK    4  A    between atoms: O4_5  and  C1_27 
REMARK    5  A    between atoms: C2_6  and  N_39 
REMARK    6  A    between atoms: S1_9  and  N_39 
REMARK    7  A    between atoms: C6_10  and  C5_52 
REMARK    8  A    between atoms: C2_12  and  N_73 
REMARK    9  A    between atoms: C2_19  and  O2_24 
REMARK   10  A    between atoms: C2_21  and  O2_44 
REMARK   11  A    between atoms: S2_23  and  O6_65 
REMARK   12  A    between atoms: O2_24  and  S_54 
REMARK   13  A    between atoms: C1_28  and  O4_60 
REMARK   14  A    between atoms: C5_29  and  C6_38 
REMARK   15  A    between atoms: C5_30  and  C6_33 
REMARK   16  A    between atoms: S1_34  and  N_73 
REMARK   17  A    between atoms: C5_41  and  C6_46 
REMARK   18  A    between atoms: S_43  and  O2_44 
REMARK   19  A    between atoms: C6_46  and  O6_72 
REMARK   20  A    between atoms: O4_50  and  C4_71 
REMARK   21  A    between atoms: C1_56  and  O4_64 
REMARK   22  A    between atoms: O4_60  and  C4_83 
REMARK   23  A    between atoms: C4_61  and  O4_64 
REMARK   24  A    between atoms: S2_63  and  O6_72 
REMARK   25  A    between atoms: O6_65  and  C6_67 
REMARK   26  A    between atoms: C6_67  and  C5_75 
REMARK   27  A    between atoms: S_76  and  O2_78 
ROOT
ATOM      1  C2  IDS d 504     -17.784  51.873 175.396  0.00  0.00     0.226 C 
ATOM      2  O3  IDS d 504     -19.473  50.110 175.169  0.00  0.00    -0.218 OA
ATOM      3  O5  IDS d 504     -17.130  51.683 173.056  0.00  0.00    -0.318 OA
ATOM      4  C5  IDS d 504     -17.592  50.354 172.956  0.00  0.00     0.234 C 
ATOM      5  C1  IDS d 504     -17.839  52.482 174.009  0.00  0.00     0.269 C 
ATOM      6  C3  IDS d 504     -18.084  50.325 175.387  0.00  0.00     0.216 C 
ATOM      7  C4  IDS d 504     -17.341  49.613 174.267  0.00  0.00     0.189 C 
ENDROOT
BRANCH   5   8
ATOM      8  O4  SGN d 503     -19.182  52.664 173.662  0.00  0.00    -0.326 OA
BRANCH   8   9
ATOM      9  C4  SGN d 503     -19.477  53.937 173.188  0.00  0.00     0.180 C 
ATOM     10  C3  SGN d 503     -19.183  53.976 171.690  0.00  0.00     0.210 C 
ATOM     11  C2  SGN d 503     -19.710  55.286 171.134  0.00  0.00     0.207 C 
ATOM     12  O3  SGN d 503     -17.781  53.907 171.514  0.00  0.00    -0.218 OA
ATOM     13  C1  SGN d 503     -21.186  55.502 171.495  0.00  0.00     0.263 C 
ATOM     14  O5  SGN d 503     -21.341  55.449 172.891  0.00  0.00    -0.327 OA
ATOM     15  C5  SGN d 503     -20.967  54.226 173.443  0.00  0.00     0.179 C 
BRANCH  11  16
ATOM     16  N   SGN d 503     -19.521  55.365 169.696  0.00  0.00    -0.162 NA
BRANCH  16  17
ATOM     17  S1  SGN d 503     -19.133  56.814 169.065  0.00  0.00     0.227 S 
ATOM     18  O1S SGN d 503     -18.123  56.558 168.055  0.00  0.00    -0.577 OA
ATOM     19  O2S SGN d 503     -20.343  57.403 168.495  0.00  0.00    -0.577 OA
ATOM     20  O3S SGN d 503     -18.608  57.539 170.200  0.00  0.00    -0.577 OA
ENDBRANCH  16  17
ENDBRANCH  11  16
BRANCH  13  21
ATOM     21  O4  IDS d 502     -22.002  54.560 170.853  0.00  0.00    -0.326 OA
BRANCH  21  22
ATOM     22  C4  IDS d 502     -22.877  55.096 169.893  0.00  0.00     0.189 C 
ATOM     23  C3  IDS d 502     -22.702  54.346 168.559  0.00  0.00     0.216 C 
ATOM     24  O3  IDS d 502     -23.435  55.021 167.554  0.00  0.00    -0.218 OA
ATOM     25  C2  IDS d 502     -23.240  52.916 168.659  0.00  0.00     0.229 C 
ATOM     26  C1  IDS d 502     -24.632  52.874 169.283  0.00  0.00     0.301 C 
ATOM     27  O1  IDS d 502     -25.544  53.362 168.335  0.00  0.00    -0.187 OA
ATOM     28  O5  IDS d 502     -24.673  53.591 170.491  0.00  0.00    -0.316 OA
ATOM     29  C5  IDS d 502     -24.316  54.955 170.383  0.00  0.00     0.234 C 
BRANCH  25  30
ATOM     30  O2  IDS d 502     -22.368  52.201 169.494  0.00  0.00    -0.232 OA
BRANCH  30  31
ATOM     31  S   IDS d 502     -22.128  50.656 169.528  0.00  0.00     0.252 S 
ATOM     32  O3S IDS d 502     -20.969  50.482 170.365  0.00  0.00    -0.572 OA
ATOM     33  O2S IDS d 502     -21.920  50.258 168.155  0.00  0.00    -0.572 OA
ATOM     34  O1S IDS d 502     -23.302  50.055 170.099  0.00  0.00    -0.572 OA
ENDBRANCH  30  31
ENDBRANCH  25  30
BRANCH  29  35
ATOM     35  C6  IDS d 502     -24.608  55.692 171.683  0.00  0.00     0.216 C 
ATOM     36  O61 IDS d 502     -24.389  56.873 171.796  0.00  0.00    -0.646 OA
ATOM     37  O62 IDS d 502     -25.076  55.109 172.642  0.00  0.00    -0.646 OA
ENDBRANCH  29  35
ENDBRANCH  21  22
ENDBRANCH  13  21
BRANCH  15  38
ATOM     38  C6  SGN d 503     -21.338  54.336 174.897  0.00  0.00     0.198 C 
BRANCH  38  39
ATOM     39  O6  SGN d 503     -20.261  54.956 175.565  0.00  0.00    -0.235 OA
BRANCH  39  40
ATOM     40  S2  SGN d 503     -20.241  56.419 176.083  0.00  0.00     0.252 S 
ATOM     41  O4S SGN d 503     -18.919  56.723 176.512  0.00  0.00    -0.572 OA
ATOM     42  O5S SGN d 503     -20.665  57.270 174.976  0.00  0.00    -0.572 OA
ATOM     43  O6S SGN d 503     -21.117  56.395 177.189  0.00  0.00    -0.572 OA
ENDBRANCH  39  40
ENDBRANCH  38  39
ENDBRANCH  15  38
ENDBRANCH   8   9
ENDBRANCH   5   8
BRANCH   1  44
ATOM     44  O2  IDS d 504     -16.492  52.127 175.945  0.00  0.00    -0.233 OA
BRANCH  44  45
ATOM     45  S   IDS d 504     -16.171  52.988 177.180  0.00  0.00     0.252 S 
ATOM     46  O3S IDS d 504     -16.724  54.251 176.860  0.00  0.00    -0.572 OA
ATOM     47  O2S IDS d 504     -14.748  52.981 177.355  0.00  0.00    -0.572 OA
ATOM     48  O1S IDS d 504     -16.835  52.381 178.275  0.00  0.00    -0.572 OA
ENDBRANCH  44  45
ENDBRANCH   1  44
BRANCH   4  49
ATOM     49  C6  IDS d 504     -17.012  49.678 171.702  0.00  0.00     0.216 C 
ATOM     50  O62 IDS d 504     -17.568  48.703 171.190  0.00  0.00    -0.646 OA
ATOM     51  O61 IDS d 504     -15.974  50.080 171.193  0.00  0.00    -0.646 OA
ENDBRANCH   4  49
BRANCH   7  52
ATOM     52  O4  IDS d 504     -15.952  49.597 174.562  0.00  0.00    -0.326 OA
BRANCH  52  53
ATOM     53  C1  SGN d 505     -15.519  48.421 175.191  0.00  0.00     0.263 C 
ATOM     54  C2  SGN d 505     -14.160  48.603 175.838  0.00  0.00     0.207 C 
ATOM     55  C3  SGN d 505     -13.073  48.830 174.770  0.00  0.00     0.210 C 
ATOM     56  C4  SGN d 505     -13.138  47.589 173.833  0.00  0.00     0.180 C 
ATOM     57  O3  SGN d 505     -11.810  48.899 175.420  0.00  0.00    -0.218 OA
ATOM     58  C5  SGN d 505     -14.518  47.559 173.260  0.00  0.00     0.179 C 
ATOM     59  O5  SGN d 505     -15.460  47.369 174.271  0.00  0.00    -0.327 OA
BRANCH  54  60
ATOM     60  N   SGN d 505     -14.252  49.650 176.882  0.00  0.00    -0.162 NA
BRANCH  60  61
ATOM     61  S1  SGN d 505     -14.213  49.153 178.482  0.00  0.00     0.227 S 
ATOM     62  O3S SGN d 505     -12.853  48.902 178.805  0.00  0.00    -0.577 OA
ATOM     63  O1S SGN d 505     -14.800  50.207 179.283  0.00  0.00    -0.577 OA
ATOM     64  O2S SGN d 505     -14.993  47.938 178.513  0.00  0.00    -0.577 OA
ENDBRANCH  60  61
ENDBRANCH  54  60
BRANCH  56  65
ATOM     65  O4  SGN d 505     -12.262  47.615 172.726  0.00  0.00    -0.326 OA
BRANCH  65  66
ATOM     66  C1  IDS d 506     -11.145  46.801 172.613  0.00  0.00     0.269 C 
ATOM     67  C2  IDS d 506     -10.334  47.237 171.384  0.00  0.00     0.226 C 
ATOM     68  C3  IDS d 506      -9.256  46.202 170.959  0.00  0.00     0.219 C 
ATOM     69  O3  IDS d 506      -8.092  46.409 171.756  0.00  0.00    -0.218 OA
ATOM     70  C4  IDS d 506      -9.707  44.735 171.120  0.00  0.00     0.223 C 
ATOM     71  O4  IDS d 506     -10.483  44.410 169.991  0.00  0.00    -0.217 OA
ATOM     72  C5  IDS d 506     -10.544  44.560 172.392  0.00  0.00     0.237 C 
ATOM     73  O5  IDS d 506     -11.583  45.482 172.409  0.00  0.00    -0.318 OA
BRANCH  67  74
ATOM     74  O2  IDS d 506     -11.192  47.414 170.274  0.00  0.00    -0.233 OA
BRANCH  74  75
ATOM     75  S   IDS d 506     -11.193  48.593 169.209  0.00  0.00     0.252 S 
ATOM     76  O1S IDS d 506     -10.965  47.956 167.949  0.00  0.00    -0.572 OA
ATOM     77  O2S IDS d 506     -12.482  49.224 169.243  0.00  0.00    -0.572 OA
ATOM     78  O3S IDS d 506     -10.116  49.474 169.605  0.00  0.00    -0.572 OA
ENDBRANCH  74  75
ENDBRANCH  67  74
BRANCH  72  79
ATOM     79  C6  IDS d 506     -11.097  43.172 172.655  0.00  0.00     0.217 C 
ATOM     80  O61 IDS d 506     -10.339  42.253 172.931  0.00  0.00    -0.646 OA
ATOM     81  O62 IDS d 506     -12.290  42.928 172.586  0.00  0.00    -0.646 OA
ENDBRANCH  72  79
ENDBRANCH  65  66
ENDBRANCH  56  65
BRANCH  58  82
ATOM     82  C6  SGN d 505     -14.717  46.444 172.286  0.00  0.00     0.198 C 
BRANCH  82  83
ATOM     83  O6  SGN d 505     -14.602  47.029 171.034  0.00  0.00    -0.235 OA
BRANCH  83  84
ATOM     84  S2  SGN d 505     -15.015  46.433 169.697  0.00  0.00     0.252 S 
ATOM     85  O6S SGN d 505     -15.367  47.547 168.827  0.00  0.00    -0.572 OA
ATOM     86  O4S SGN d 505     -13.847  45.715 169.239  0.00  0.00    -0.572 OA
ATOM     87  O5S SGN d 505     -16.148  45.597 170.007  0.00  0.00    -0.572 OA
ENDBRANCH  83  84
ENDBRANCH  82  83
ENDBRANCH  58  82
ENDBRANCH  52  53
ENDBRANCH   7  52
TORSDOF 27

ENDMDL
MODEL 86
REMARK VINA RESULT:       5.6      4.600      9.771
REMARK  27 active torsions:
REMARK  status: ('A' for Active; 'I' for Inactive)
REMARK    1  A    between atoms: C2_1  and  O2_78 
REMARK    2  A    between atoms: C1_3  and  O4_50 
REMARK    3  A    between atoms: O4_5  and  C4_58 
REMARK    4  A    between atoms: O4_5  and  C1_27 
REMARK    5  A    between atoms: C2_6  and  N_39 
REMARK    6  A    between atoms: S1_9  and  N_39 
REMARK    7  A    between atoms: C6_10  and  C5_52 
REMARK    8  A    between atoms: C2_12  and  N_73 
REMARK    9  A    between atoms: C2_19  and  O2_24 
REMARK   10  A    between atoms: C2_21  and  O2_44 
REMARK   11  A    between atoms: S2_23  and  O6_65 
REMARK   12  A    between atoms: O2_24  and  S_54 
REMARK   13  A    between atoms: C1_28  and  O4_60 
REMARK   14  A    between atoms: C5_29  and  C6_38 
REMARK   15  A    between atoms: C5_30  and  C6_33 
REMARK   16  A    between atoms: S1_34  and  N_73 
REMARK   17  A    between atoms: C5_41  and  C6_46 
REMARK   18  A    between atoms: S_43  and  O2_44 
REMARK   19  A    between atoms: C6_46  and  O6_72 
REMARK   20  A    between atoms: O4_50  and  C4_71 
REMARK   21  A    between atoms: C1_56  and  O4_64 
REMARK   22  A    between atoms: O4_60  and  C4_83 
REMARK   23  A    between atoms: C4_61  and  O4_64 
REMARK   24  A    between atoms: S2_63  and  O6_72 
REMARK   25  A    between atoms: O6_65  and  C6_67 
REMARK   26  A    between atoms: C6_67  and  C5_75 
REMARK   27  A    between atoms: S_76  and  O2_78 
ROOT
ATOM      1  C2  IDS d 504     -17.884  49.542 175.926  0.00  0.00     0.226 C 
ATOM      2  O3  IDS d 504     -16.741  51.120 177.415  0.00  0.00    -0.218 OA
ATOM      3  O5  IDS d 504     -16.164  49.762 174.214  0.00  0.00    -0.318 OA
ATOM      4  C5  IDS d 504     -15.764  51.035 174.670  0.00  0.00     0.234 C 
ATOM      5  C1  IDS d 504     -16.692  48.909 175.236  0.00  0.00     0.269 C 
ATOM      6  C3  IDS d 504     -17.629  51.051 176.306  0.00  0.00     0.216 C 
ATOM      7  C4  IDS d 504     -16.978  51.818 175.165  0.00  0.00     0.189 C 
ENDROOT
BRANCH   5   8
ATOM      8  O4  SGN d 503     -15.741  48.587 176.209  0.00  0.00    -0.326 OA
BRANCH   8   9
ATOM      9  C4  SGN d 503     -14.985  47.459 175.910  0.00  0.00     0.180 C 
ATOM     10  C3  SGN d 503     -15.754  46.615 174.896  0.00  0.00     0.210 C 
ATOM     11  C2  SGN d 503     -14.841  45.506 174.406  0.00  0.00     0.207 C 
ATOM     12  O3  SGN d 503     -16.879  46.059 175.550  0.00  0.00    -0.218 OA
ATOM     13  C1  SGN d 503     -13.507  46.060 173.886  0.00  0.00     0.263 C 
ATOM     14  O5  SGN d 503     -12.886  46.815 174.896  0.00  0.00    -0.327 OA
ATOM     15  C5  SGN d 503     -13.641  47.910 175.312  0.00  0.00     0.179 C 
BRANCH  11  16
ATOM     16  N   SGN d 503     -15.488  44.698 173.388  0.00  0.00    -0.162 NA
BRANCH  16  17
ATOM     17  S1  SGN d 503     -15.294  43.084 173.470  0.00  0.00     0.227 S 
ATOM     18  O1S SGN d 503     -14.604  42.823 174.719  0.00  0.00    -0.577 OA
ATOM     19  O2S SGN d 503     -16.617  42.462 173.433  0.00  0.00    -0.577 OA
ATOM     20  O3S SGN d 503     -14.476  42.790 172.315  0.00  0.00    -0.577 OA
ENDBRANCH  16  17
ENDBRANCH  11  16
BRANCH  13  21
ATOM     21  O4  IDS d 502     -13.699  46.819 172.723  0.00  0.00    -0.326 OA
BRANCH  21  22
ATOM     22  C4  IDS d 502     -13.058  46.316 171.579  0.00  0.00     0.189 C 
ATOM     23  C3  IDS d 502     -14.105  45.999 170.496  0.00  0.00     0.216 C 
ATOM     24  O3  IDS d 502     -13.474  45.311 169.434  0.00  0.00    -0.218 OA
ATOM     25  C2  IDS d 502     -14.716  47.285 169.931  0.00  0.00     0.229 C 
ATOM     26  C1  IDS d 502     -13.647  48.308 169.560  0.00  0.00     0.301 C 
ATOM     27  O1  IDS d 502     -13.010  47.862 168.392  0.00  0.00    -0.187 OA
ATOM     28  O5  IDS d 502     -12.747  48.514 170.620  0.00  0.00    -0.316 OA
ATOM     29  C5  IDS d 502     -12.067  47.354 171.056  0.00  0.00     0.234 C 
BRANCH  25  30
ATOM     30  O2  IDS d 502     -15.519  47.842 170.938  0.00  0.00    -0.232 OA
BRANCH  30  31
ATOM     31  S   IDS d 502     -17.078  47.978 170.953  0.00  0.00     0.252 S 
ATOM     32  O3S IDS d 502     -17.515  47.077 171.987  0.00  0.00    -0.572 OA
ATOM     33  O2S IDS d 502     -17.520  47.605 169.630  0.00  0.00    -0.572 OA
ATOM     34  O1S IDS d 502     -17.382  49.347 171.265  0.00  0.00    -0.572 OA
ENDBRANCH  30  31
ENDBRANCH  25  30
BRANCH  29  35
ATOM     35  C6  IDS d 502     -10.962  47.714 172.038  0.00  0.00     0.216 C 
ATOM     36  O61 IDS d 502     -10.325  46.860 172.605  0.00  0.00    -0.646 OA
ATOM     37  O62 IDS d 502     -10.689  48.875 172.275  0.00  0.00    -0.646 OA
ENDBRANCH  29  35
ENDBRANCH  21  22
ENDBRANCH  13  21
BRANCH  15  38
ATOM     38  C6  SGN d 503     -12.747  48.643 176.275  0.00  0.00     0.198 C 
BRANCH  38  39
ATOM     39  O6  SGN d 503     -11.732  49.269 175.520  0.00  0.00    -0.235 OA
BRANCH  39  40
ATOM     40  S2  SGN d 503     -11.393  50.783 175.544  0.00  0.00     0.252 S 
ATOM     41  O4S SGN d 503     -11.536  51.294 174.223  0.00  0.00    -0.572 OA
ATOM     42  O5S SGN d 503     -12.321  51.415 176.477  0.00  0.00    -0.572 OA
ATOM     43  O6S SGN d 503     -10.037  50.817 175.932  0.00  0.00    -0.572 OA
ENDBRANCH  39  40
ENDBRANCH  38  39
ENDBRANCH  15  38
ENDBRANCH   8   9
ENDBRANCH   5   8
BRANCH   1  44
ATOM     44  O2  IDS d 504     -19.013  49.429 175.062  0.00  0.00    -0.233 OA
BRANCH  44  45
ATOM     45  S   IDS d 504     -20.324  48.677 175.355  0.00  0.00     0.252 S 
ATOM     46  O3S IDS d 504     -19.888  47.442 175.889  0.00  0.00    -0.572 OA
ATOM     47  O2S IDS d 504     -21.053  48.579 174.125  0.00  0.00    -0.572 OA
ATOM     48  O1S IDS d 504     -21.023  49.452 176.315  0.00  0.00    -0.572 OA
ENDBRANCH  44  45
ENDBRANCH   1  44
BRANCH   4  49
ATOM     49  C6  IDS d 504     -14.919  51.747 173.601  0.00  0.00     0.216 C 
ATOM     50  O62 IDS d 504     -14.750  51.249 172.486  0.00  0.00    -0.646 OA
ATOM     51  O61 IDS d 504     -14.378  52.820 173.838  0.00  0.00    -0.646 OA
ENDBRANCH   4  49
BRANCH   7  52
ATOM     52  O4  IDS d 504     -17.918  51.980 174.113  0.00  0.00    -0.326 OA
BRANCH  52  53
ATOM     53  C1  SGN d 505     -18.867  52.984 174.349  0.00  0.00     0.263 C 
ATOM     54  C2  SGN d 505     -19.803  53.156 173.169  0.00  0.00     0.207 C 
ATOM     55  C3  SGN d 505     -19.043  53.697 171.942  0.00  0.00     0.210 C 
ATOM     56  C4  SGN d 505     -18.397  55.035 172.405  0.00  0.00     0.180 C 
ATOM     57  O3  SGN d 505     -19.978  53.929 170.898  0.00  0.00    -0.218 OA
ATOM     58  C5  SGN d 505     -17.493  54.701 173.547  0.00  0.00     0.179 C 
ATOM     59  O5  SGN d 505     -18.231  54.202 174.620  0.00  0.00    -0.327 OA
BRANCH  54  60
ATOM     60  N   SGN d 505     -20.547  51.894 172.948  0.00  0.00    -0.162 NA
BRANCH  60  61
ATOM     61  S1  SGN d 505     -22.221  51.965 172.993  0.00  0.00     0.227 S 
ATOM     62  O3S SGN d 505     -22.699  51.178 171.913  0.00  0.00    -0.577 OA
ATOM     63  O1S SGN d 505     -22.645  51.469 174.286  0.00  0.00    -0.577 OA
ATOM     64  O2S SGN d 505     -22.539  53.362 172.808  0.00  0.00    -0.577 OA
ENDBRANCH  60  61
ENDBRANCH  54  60
BRANCH  56  65
ATOM     65  O4  SGN d 505     -17.584  55.682 171.448  0.00  0.00    -0.326 OA
BRANCH  65  66
ATOM     66  C1  IDS d 506     -17.951  56.846 170.791  0.00  0.00     0.269 C 
ATOM     67  C2  IDS d 506     -16.750  57.364 169.987  0.00  0.00     0.226 C 
ATOM     68  C3  IDS d 506     -16.927  58.824 169.486  0.00  0.00     0.219 C 
ATOM     69  O3  IDS d 506     -17.681  58.799 168.277  0.00  0.00    -0.218 OA
ATOM     70  C4  IDS d 506     -17.649  59.743 170.496  0.00  0.00     0.223 C 
ATOM     71  O4  IDS d 506     -16.689  60.167 171.435  0.00  0.00    -0.217 OA
ATOM     72  C5  IDS d 506     -18.773  58.987 171.210  0.00  0.00     0.237 C 
ATOM     73  O5  IDS d 506     -18.283  57.809 171.760  0.00  0.00    -0.318 OA
BRANCH  67  74
ATOM     74  O2  IDS d 506     -15.584  57.344 170.787  0.00  0.00    -0.233 OA
BRANCH  74  75
ATOM     75  S   IDS d 506     -14.201  56.618 170.494  0.00  0.00     0.252 S 
ATOM     76  O1S IDS d 506     -14.473  55.223 170.653  0.00  0.00    -0.572 OA
ATOM     77  O2S IDS d 506     -13.817  56.918 169.144  0.00  0.00    -0.572 OA
ATOM     78  O3S IDS d 506     -13.276  57.135 171.479  0.00  0.00    -0.572 OA
ENDBRANCH  74  75
ENDBRANCH  67  74
BRANCH  72  79
ATOM     79  C6  IDS d 506     -19.541  59.755 172.270  0.00  0.00     0.217 C 
ATOM     80  O61 IDS d 506     -18.946  60.260 173.211  0.00  0.00    -0.646 OA
ATOM     81  O62 IDS d 506     -20.753  59.879 172.227  0.00  0.00    -0.646 OA
ENDBRANCH  72  79
ENDBRANCH  65  66
ENDBRANCH  56  65
BRANCH  58  82
ATOM     82  C6  SGN d 505     -16.751  55.890 174.066  0.00  0.00     0.198 C 
BRANCH  82  83
ATOM     83  O6  SGN d 505     -15.749  55.369 174.871  0.00  0.00    -0.235 OA
BRANCH  83  84
ATOM     84  S2  SGN d 505     -15.415  55.768 176.301  0.00  0.00     0.252 S 
ATOM     85  O6S SGN d 505     -16.565  56.500 176.816  0.00  0.00    -0.572 OA
ATOM     86  O4S SGN d 505     -15.196  54.517 176.990  0.00  0.00    -0.572 OA
ATOM     87  O5S SGN d 505     -14.242  56.598 176.181  0.00  0.00    -0.572 OA
ENDBRANCH  83  84
ENDBRANCH  82  83
ENDBRANCH  58  82
ENDBRANCH  52  53
ENDBRANCH   7  52
TORSDOF 27

ENDMDL
MODEL 87
REMARK VINA RESULT:       5.7      2.442     10.501
REMARK  27 active torsions:
REMARK  status: ('A' for Active; 'I' for Inactive)
REMARK    1  A    between atoms: C2_1  and  O2_78 
REMARK    2  A    between atoms: C1_3  and  O4_50 
REMARK    3  A    between atoms: O4_5  and  C4_58 
REMARK    4  A    between atoms: O4_5  and  C1_27 
REMARK    5  A    between atoms: C2_6  and  N_39 
REMARK    6  A    between atoms: S1_9  and  N_39 
REMARK    7  A    between atoms: C6_10  and  C5_52 
REMARK    8  A    between atoms: C2_12  and  N_73 
REMARK    9  A    between atoms: C2_19  and  O2_24 
REMARK   10  A    between atoms: C2_21  and  O2_44 
REMARK   11  A    between atoms: S2_23  and  O6_65 
REMARK   12  A    between atoms: O2_24  and  S_54 
REMARK   13  A    between atoms: C1_28  and  O4_60 
REMARK   14  A    between atoms: C5_29  and  C6_38 
REMARK   15  A    between atoms: C5_30  and  C6_33 
REMARK   16  A    between atoms: S1_34  and  N_73 
REMARK   17  A    between atoms: C5_41  and  C6_46 
REMARK   18  A    between atoms: S_43  and  O2_44 
REMARK   19  A    between atoms: C6_46  and  O6_72 
REMARK   20  A    between atoms: O4_50  and  C4_71 
REMARK   21  A    between atoms: C1_56  and  O4_64 
REMARK   22  A    between atoms: O4_60  and  C4_83 
REMARK   23  A    between atoms: C4_61  and  O4_64 
REMARK   24  A    between atoms: S2_63  and  O6_72 
REMARK   25  A    between atoms: O6_65  and  C6_67 
REMARK   26  A    between atoms: C6_67  and  C5_75 
REMARK   27  A    between atoms: S_76  and  O2_78 
ROOT
ATOM      1  C2  IDS d 504     -12.871  46.444 176.755  0.00  0.00     0.226 C 
ATOM      2  O3  IDS d 504     -12.711  48.528 178.038  0.00  0.00    -0.218 OA
ATOM      3  O5  IDS d 504     -12.704  47.625 174.630  0.00  0.00    -0.318 OA
ATOM      4  C5  IDS d 504     -13.181  48.834 175.177  0.00  0.00     0.234 C 
ATOM      5  C1  IDS d 504     -12.004  46.793 175.562  0.00  0.00     0.269 C 
ATOM      6  C3  IDS d 504     -13.629  47.699 177.336  0.00  0.00     0.216 C 
ATOM      7  C4  IDS d 504     -14.245  48.546 176.234  0.00  0.00     0.189 C 
ENDROOT
BRANCH   5   8
ATOM      8  O4  SGN d 503     -10.828  47.386 176.031  0.00  0.00    -0.326 OA
BRANCH   8   9
ATOM      9  C4  SGN d 503      -9.680  46.975 175.363  0.00  0.00     0.180 C 
ATOM     10  C3  SGN d 503     -10.067  45.894 174.357  0.00  0.00     0.210 C 
ATOM     11  C2  SGN d 503      -8.862  45.604 173.480  0.00  0.00     0.207 C 
ATOM     12  O3  SGN d 503     -10.430  44.731 175.077  0.00  0.00    -0.218 OA
ATOM     13  C1  SGN d 503      -8.301  46.886 172.848  0.00  0.00     0.263 C 
ATOM     14  O5  SGN d 503      -7.978  47.807 173.860  0.00  0.00    -0.327 OA
ATOM     15  C5  SGN d 503      -9.073  48.186 174.633  0.00  0.00     0.179 C 
BRANCH  11  16
ATOM     16  N   SGN d 503      -9.178  44.627 172.453  0.00  0.00    -0.162 NA
BRANCH  16  17
ATOM     17  S1  SGN d 503      -8.024  43.549 172.060  0.00  0.00     0.227 S 
ATOM     18  O1S SGN d 503      -7.463  43.998 170.800  0.00  0.00    -0.577 OA
ATOM     19  O2S SGN d 503      -7.028  43.535 173.131  0.00  0.00    -0.577 OA
ATOM     20  O3S SGN d 503      -8.759  42.311 171.929  0.00  0.00    -0.577 OA
ENDBRANCH  16  17
ENDBRANCH  11  16
BRANCH  13  21
ATOM     21  O4  IDS d 502      -9.210  47.432 171.930  0.00  0.00    -0.326 OA
BRANCH  21  22
ATOM     22  C4  IDS d 502      -8.677  47.686 170.656  0.00  0.00     0.189 C 
ATOM     23  C3  IDS d 502      -9.366  46.779 169.618  0.00  0.00     0.216 C 
ATOM     24  O3  IDS d 502      -8.687  46.898 168.382  0.00  0.00    -0.218 OA
ATOM     25  C2  IDS d 502     -10.822  47.201 169.402  0.00  0.00     0.229 C 
ATOM     26  C1  IDS d 502     -10.952  48.705 169.179  0.00  0.00     0.301 C 
ATOM     27  O1  IDS d 502     -10.470  48.994 167.894  0.00  0.00    -0.187 OA
ATOM     28  O5  IDS d 502     -10.285  49.429 170.182  0.00  0.00    -0.316 OA
ATOM     29  C5  IDS d 502      -8.903  49.152 170.294  0.00  0.00     0.234 C 
BRANCH  25  30
ATOM     30  O2  IDS d 502     -11.528  46.872 170.568  0.00  0.00    -0.232 OA
BRANCH  30  31
ATOM     31  S   IDS d 502     -12.949  46.225 170.677  0.00  0.00     0.252 S 
ATOM     32  O3S IDS d 502     -12.979  45.228 169.639  0.00  0.00    -0.572 OA
ATOM     33  O2S IDS d 502     -13.889  47.303 170.476  0.00  0.00    -0.572 OA
ATOM     34  O1S IDS d 502     -13.054  45.646 171.987  0.00  0.00    -0.572 OA
ENDBRANCH  30  31
ENDBRANCH  25  30
BRANCH  29  35
ATOM     35  C6  IDS d 502      -8.231  50.139 171.239  0.00  0.00     0.216 C 
ATOM     36  O61 IDS d 502      -7.029  50.195 171.335  0.00  0.00    -0.646 OA
ATOM     37  O62 IDS d 502      -8.889  50.901 171.920  0.00  0.00    -0.646 OA
ENDBRANCH  29  35
ENDBRANCH  21  22
ENDBRANCH  13  21
BRANCH  15  38
ATOM     38  C6  SGN d 503      -8.541  49.259 175.545  0.00  0.00     0.198 C 
BRANCH  38  39
ATOM     39  O6  SGN d 503      -7.588  50.001 174.816  0.00  0.00    -0.235 OA
BRANCH  39  40
ATOM     40  S2  SGN d 503      -7.084  51.424 175.176  0.00  0.00     0.252 S 
ATOM     41  O4S SGN d 503      -6.595  51.400 176.513  0.00  0.00    -0.572 OA
ATOM     42  O5S SGN d 503      -6.036  51.762 174.217  0.00  0.00    -0.572 OA
ATOM     43  O6S SGN d 503      -8.246  52.221 175.098  0.00  0.00    -0.572 OA
ENDBRANCH  39  40
ENDBRANCH  38  39
ENDBRANCH  15  38
ENDBRANCH   8   9
ENDBRANCH   5   8
BRANCH   1  44
ATOM     44  O2  IDS d 504     -13.802  45.441 176.354  0.00  0.00    -0.233 OA
BRANCH  44  45
ATOM     45  S   IDS d 504     -13.769  43.950 176.735  0.00  0.00     0.252 S 
ATOM     46  O3S IDS d 504     -12.618  43.840 177.552  0.00  0.00    -0.572 OA
ATOM     47  O2S IDS d 504     -13.720  43.192 175.520  0.00  0.00    -0.572 OA
ATOM     48  O1S IDS d 504     -14.959  43.696 177.462  0.00  0.00    -0.572 OA
ENDBRANCH  44  45
ENDBRANCH   1  44
BRANCH   4  49
ATOM     49  C6  IDS d 504     -13.615  49.795 174.058  0.00  0.00     0.216 C 
ATOM     50  O62 IDS d 504     -13.467  51.014 174.172  0.00  0.00    -0.646 OA
ATOM     51  O61 IDS d 504     -14.135  49.374 173.033  0.00  0.00    -0.646 OA
ENDBRANCH   4  49
BRANCH   7  52
ATOM     52  O4  IDS d 504     -15.333  47.843 175.653  0.00  0.00    -0.326 OA
BRANCH  52  53
ATOM     53  C1  SGN d 505     -16.535  47.971 176.363  0.00  0.00     0.263 C 
ATOM     54  C2  SGN d 505     -17.699  47.366 175.603  0.00  0.00     0.207 C 
ATOM     55  C3  SGN d 505     -17.985  48.164 174.316  0.00  0.00     0.210 C 
ATOM     56  C4  SGN d 505     -18.255  49.625 174.779  0.00  0.00     0.180 C 
ATOM     57  O3  SGN d 505     -19.139  47.616 173.692  0.00  0.00    -0.218 OA
ATOM     58  C5  SGN d 505     -17.022  50.085 175.485  0.00  0.00     0.179 C 
ATOM     59  O5  SGN d 505     -16.803  49.318 176.630  0.00  0.00    -0.327 OA
BRANCH  54  60
ATOM     60  N   SGN d 505     -17.457  45.917 175.409  0.00  0.00    -0.162 NA
BRANCH  60  61
ATOM     61  S1  SGN d 505     -18.597  44.853 176.024  0.00  0.00     0.227 S 
ATOM     62  O3S SGN d 505     -19.806  45.582 176.172  0.00  0.00    -0.577 OA
ATOM     63  O1S SGN d 505     -18.712  43.750 175.094  0.00  0.00    -0.577 OA
ATOM     64  O2S SGN d 505     -18.070  44.442 177.304  0.00  0.00    -0.577 OA
ENDBRANCH  60  61
ENDBRANCH  54  60
BRANCH  56  65
ATOM     65  O4  SGN d 505     -18.478  50.560 173.745  0.00  0.00    -0.326 OA
BRANCH  65  66
ATOM     66  C1  IDS d 506     -19.677  50.674 173.058  0.00  0.00     0.269 C 
ATOM     67  C2  IDS d 506     -19.617  51.913 172.153  0.00  0.00     0.226 C 
ATOM     68  C3  IDS d 506     -21.004  52.336 171.596  0.00  0.00     0.219 C 
ATOM     69  O3  IDS d 506     -21.287  51.550 170.441  0.00  0.00    -0.218 OA
ATOM     70  C4  IDS d 506     -22.159  52.159 172.605  0.00  0.00     0.223 C 
ATOM     71  O4  IDS d 506     -22.144  53.280 173.458  0.00  0.00    -0.217 OA
ATOM     72  C5  IDS d 506     -21.970  50.880 173.427  0.00  0.00     0.237 C 
ATOM     73  O5  IDS d 506     -20.703  50.864 174.000  0.00  0.00    -0.318 OA
BRANCH  67  74
ATOM     74  O2  IDS d 506     -19.111  53.019 172.875  0.00  0.00    -0.233 OA
BRANCH  74  75
ATOM     75  S   IDS d 506     -17.902  53.976 172.490  0.00  0.00     0.252 S 
ATOM     76  O1S IDS d 506     -18.439  54.879 171.519  0.00  0.00    -0.572 OA
ATOM     77  O2S IDS d 506     -17.492  54.676 173.675  0.00  0.00    -0.572 OA
ATOM     78  O3S IDS d 506     -16.876  53.108 171.955  0.00  0.00    -0.572 OA
ENDBRANCH  74  75
ENDBRANCH  67  74
BRANCH  72  79
ATOM     79  C6  IDS d 506     -23.009  50.601 174.497  0.00  0.00     0.217 C 
ATOM     80  O61 IDS d 506     -22.657  50.255 175.616  0.00  0.00    -0.646 OA
ATOM     81  O62 IDS d 506     -24.204  50.695 174.277  0.00  0.00    -0.646 OA
ENDBRANCH  72  79
ENDBRANCH  65  66
ENDBRANCH  56  65
BRANCH  58  82
ATOM     82  C6  SGN d 505     -17.110  51.505 175.943  0.00  0.00     0.198 C 
BRANCH  82  83
ATOM     83  O6  SGN d 505     -15.815  51.855 176.292  0.00  0.00    -0.235 OA
BRANCH  83  84
ATOM     84  S2  SGN d 505     -15.355  52.510 177.586  0.00  0.00     0.252 S 
ATOM     85  O6S SGN d 505     -15.395  53.950 177.369  0.00  0.00    -0.572 OA
ATOM     86  O4S SGN d 505     -16.307  52.070 178.580  0.00  0.00    -0.572 OA
ATOM     87  O5S SGN d 505     -14.014  52.019 177.784  0.00  0.00    -0.572 OA
ENDBRANCH  83  84
ENDBRANCH  82  83
ENDBRANCH  58  82
ENDBRANCH  52  53
ENDBRANCH   7  52
TORSDOF 27

ENDMDL
MODEL 88
REMARK VINA RESULT:       5.7      3.048     10.475
REMARK  27 active torsions:
REMARK  status: ('A' for Active; 'I' for Inactive)
REMARK    1  A    between atoms: C2_1  and  O2_78 
REMARK    2  A    between atoms: C1_3  and  O4_50 
REMARK    3  A    between atoms: O4_5  and  C4_58 
REMARK    4  A    between atoms: O4_5  and  C1_27 
REMARK    5  A    between atoms: C2_6  and  N_39 
REMARK    6  A    between atoms: S1_9  and  N_39 
REMARK    7  A    between atoms: C6_10  and  C5_52 
REMARK    8  A    between atoms: C2_12  and  N_73 
REMARK    9  A    between atoms: C2_19  and  O2_24 
REMARK   10  A    between atoms: C2_21  and  O2_44 
REMARK   11  A    between atoms: S2_23  and  O6_65 
REMARK   12  A    between atoms: O2_24  and  S_54 
REMARK   13  A    between atoms: C1_28  and  O4_60 
REMARK   14  A    between atoms: C5_29  and  C6_38 
REMARK   15  A    between atoms: C5_30  and  C6_33 
REMARK   16  A    between atoms: S1_34  and  N_73 
REMARK   17  A    between atoms: C5_41  and  C6_46 
REMARK   18  A    between atoms: S_43  and  O2_44 
REMARK   19  A    between atoms: C6_46  and  O6_72 
REMARK   20  A    between atoms: O4_50  and  C4_71 
REMARK   21  A    between atoms: C1_56  and  O4_64 
REMARK   22  A    between atoms: O4_60  and  C4_83 
REMARK   23  A    between atoms: C4_61  and  O4_64 
REMARK   24  A    between atoms: S2_63  and  O6_72 
REMARK   25  A    between atoms: O6_65  and  C6_67 
REMARK   26  A    between atoms: C6_67  and  C5_75 
REMARK   27  A    between atoms: S_76  and  O2_78 
ROOT
ATOM      1  C2  IDS d 504     -11.030  46.544 170.496  0.00  0.00     0.226 C 
ATOM      2  O3  IDS d 504     -11.386  44.252 171.292  0.00  0.00    -0.218 OA
ATOM      3  O5  IDS d 504      -9.983  47.212 172.592  0.00  0.00    -0.318 OA
ATOM      4  C5  IDS d 504     -10.627  46.196 173.326  0.00  0.00     0.234 C 
ATOM      5  C1  IDS d 504      -9.742  46.885 171.219  0.00  0.00     0.269 C 
ATOM      6  C3  IDS d 504     -11.944  45.560 171.323  0.00  0.00     0.216 C 
ATOM      7  C4  IDS d 504     -12.037  45.971 172.784  0.00  0.00     0.189 C 
ENDROOT
BRANCH   5   8
ATOM      8  O4  SGN d 503      -8.858  45.811 171.072  0.00  0.00    -0.326 OA
BRANCH   8   9
ATOM      9  C4  SGN d 503      -7.534  46.191 170.877  0.00  0.00     0.180 C 
ATOM     10  C3  SGN d 503      -7.505  47.669 170.496  0.00  0.00     0.210 C 
ATOM     11  C2  SGN d 503      -6.061  48.135 170.500  0.00  0.00     0.207 C 
ATOM     12  O3  SGN d 503      -8.050  47.799 169.197  0.00  0.00    -0.218 OA
ATOM     13  C1  SGN d 503      -5.365  47.810 171.830  0.00  0.00     0.263 C 
ATOM     14  O5  SGN d 503      -5.449  46.429 172.080  0.00  0.00    -0.327 OA
ATOM     15  C5  SGN d 503      -6.759  45.965 172.187  0.00  0.00     0.179 C 
BRANCH  11  16
ATOM     16  N   SGN d 503      -5.961  49.554 170.208  0.00  0.00    -0.162 NA
BRANCH  16  17
ATOM     17  S1  SGN d 503      -5.285  49.986 168.792  0.00  0.00     0.227 S 
ATOM     18  O1S SGN d 503      -4.558  48.823 168.320  0.00  0.00    -0.577 OA
ATOM     19  O2S SGN d 503      -6.355  50.373 167.874  0.00  0.00    -0.577 OA
ATOM     20  O3S SGN d 503      -4.409  51.074 169.162  0.00  0.00    -0.577 OA
ENDBRANCH  16  17
ENDBRANCH  11  16
BRANCH  13  21
ATOM     21  O4  IDS d 502      -5.918  48.555 172.880  0.00  0.00    -0.326 OA
BRANCH  21  22
ATOM     22  C4  IDS d 502      -4.987  49.277 173.644  0.00  0.00     0.189 C 
ATOM     23  C3  IDS d 502      -5.226  50.788 173.460  0.00  0.00     0.216 C 
ATOM     24  O3  IDS d 502      -4.165  51.498 174.067  0.00  0.00    -0.218 OA
ATOM     25  C2  IDS d 502      -6.533  51.221 174.130  0.00  0.00     0.229 C 
ATOM     26  C1  IDS d 502      -6.647  50.687 175.554  0.00  0.00     0.301 C 
ATOM     27  O1  IDS d 502      -5.760  51.416 176.361  0.00  0.00    -0.187 OA
ATOM     28  O5  IDS d 502      -6.407  49.302 175.602  0.00  0.00    -0.316 OA
ATOM     29  C5  IDS d 502      -5.140  48.904 175.117  0.00  0.00     0.234 C 
BRANCH  25  30
ATOM     30  O2  IDS d 502      -7.586  50.681 173.378  0.00  0.00    -0.232 OA
BRANCH  30  31
ATOM     31  S   IDS d 502      -8.585  51.441 172.444  0.00  0.00     0.252 S 
ATOM     32  O3S IDS d 502      -7.810  52.512 171.872  0.00  0.00    -0.572 OA
ATOM     33  O2S IDS d 502      -9.659  51.891 173.298  0.00  0.00    -0.572 OA
ATOM     34  O1S IDS d 502      -9.033  50.507 171.448  0.00  0.00    -0.572 OA
ENDBRANCH  30  31
ENDBRANCH  25  30
BRANCH  29  35
ATOM     35  C6  IDS d 502      -4.887  47.433 175.418  0.00  0.00     0.216 C 
ATOM     36  O61 IDS d 502      -5.689  46.772 176.032  0.00  0.00    -0.646 OA
ATOM     37  O62 IDS d 502      -3.870  46.883 175.042  0.00  0.00    -0.646 OA
ENDBRANCH  29  35
ENDBRANCH  21  22
ENDBRANCH  13  21
BRANCH  15  38
ATOM     38  C6  SGN d 503      -6.619  44.521 172.587  0.00  0.00     0.198 C 
BRANCH  38  39
ATOM     39  O6  SGN d 503      -6.964  44.422 173.951  0.00  0.00    -0.235 OA
BRANCH  39  40
ATOM     40  S2  SGN d 503      -7.680  43.217 174.616  0.00  0.00     0.252 S 
ATOM     41  O4S SGN d 503      -8.972  43.086 174.033  0.00  0.00    -0.572 OA
ATOM     42  O5S SGN d 503      -6.850  42.040 174.373  0.00  0.00    -0.572 OA
ATOM     43  O6S SGN d 503      -7.795  43.599 175.969  0.00  0.00    -0.572 OA
ENDBRANCH  39  40
ENDBRANCH  38  39
ENDBRANCH  15  38
ENDBRANCH   8   9
ENDBRANCH   5   8
BRANCH   1  44
ATOM     44  O2  IDS d 504     -11.725  47.759 170.222  0.00  0.00    -0.233 OA
BRANCH  44  45
ATOM     45  S   IDS d 504     -12.502  48.105 168.939  0.00  0.00     0.252 S 
ATOM     46  O3S IDS d 504     -13.138  49.329 169.254  0.00  0.00    -0.572 OA
ATOM     47  O2S IDS d 504     -13.393  47.015 168.665  0.00  0.00    -0.572 OA
ATOM     48  O1S IDS d 504     -11.535  48.259 167.914  0.00  0.00    -0.572 OA
ENDBRANCH  44  45
ENDBRANCH   1  44
BRANCH   4  49
ATOM     49  C6  IDS d 504     -10.546  46.490 174.834  0.00  0.00     0.216 C 
ATOM     50  O62 IDS d 504     -10.460  45.576 175.657  0.00  0.00    -0.646 OA
ATOM     51  O61 IDS d 504     -10.584  47.639 175.254  0.00  0.00    -0.646 OA
ENDBRANCH   4  49
BRANCH   7  52
ATOM     52  O4  IDS d 504     -12.796  47.167 172.888  0.00  0.00    -0.326 OA
BRANCH  52  53
ATOM     53  C1  SGN d 505     -14.015  47.007 173.562  0.00  0.00     0.263 C 
ATOM     54  C2  SGN d 505     -15.179  47.520 172.738  0.00  0.00     0.207 C 
ATOM     55  C3  SGN d 505     -15.093  49.049 172.562  0.00  0.00     0.210 C 
ATOM     56  C4  SGN d 505     -15.062  49.637 174.003  0.00  0.00     0.180 C 
ATOM     57  O3  SGN d 505     -16.252  49.490 171.868  0.00  0.00    -0.218 OA
ATOM     58  C5  SGN d 505     -13.858  49.060 174.674  0.00  0.00     0.179 C 
ATOM     59  O5  SGN d 505     -13.984  47.676 174.791  0.00  0.00    -0.327 OA
BRANCH  54  60
ATOM     60  N   SGN d 505     -15.270  46.742 171.481  0.00  0.00    -0.162 NA
BRANCH  60  61
ATOM     61  S1  SGN d 505     -16.745  46.037 171.112  0.00  0.00     0.227 S 
ATOM     62  O3S SGN d 505     -16.470  44.731 170.628  0.00  0.00    -0.577 OA
ATOM     63  O1S SGN d 505     -17.544  46.037 172.319  0.00  0.00    -0.577 OA
ATOM     64  O2S SGN d 505     -17.308  46.873 170.077  0.00  0.00    -0.577 OA
ENDBRANCH  60  61
ENDBRANCH  54  60
BRANCH  56  65
ATOM     65  O4  SGN d 505     -14.915  51.039 174.086  0.00  0.00    -0.326 OA
BRANCH  65  66
ATOM     66  C1  IDS d 506     -15.958  51.904 174.381  0.00  0.00     0.269 C 
ATOM     67  C2  IDS d 506     -15.598  53.308 173.874  0.00  0.00     0.226 C 
ATOM     68  C3  IDS d 506     -16.523  54.421 174.438  0.00  0.00     0.219 C 
ATOM     69  O3  IDS d 506     -17.703  54.475 173.641  0.00  0.00    -0.218 OA
ATOM     70  C4  IDS d 506     -16.934  54.201 175.909  0.00  0.00     0.223 C 
ATOM     71  O4  IDS d 506     -15.872  54.658 176.713  0.00  0.00    -0.217 OA
ATOM     72  C5  IDS d 506     -17.190  52.716 176.185  0.00  0.00     0.237 C 
ATOM     73  O5  IDS d 506     -16.097  51.960 175.778  0.00  0.00    -0.318 OA
BRANCH  67  74
ATOM     74  O2  IDS d 506     -14.277  53.639 174.258  0.00  0.00    -0.233 OA
BRANCH  74  75
ATOM     75  S   IDS d 506     -13.319  54.743 173.634  0.00  0.00     0.252 S 
ATOM     76  O1S IDS d 506     -13.773  54.911 172.288  0.00  0.00    -0.572 OA
ATOM     77  O2S IDS d 506     -13.483  55.954 174.388  0.00  0.00    -0.572 OA
ATOM     78  O3S IDS d 506     -11.985  54.191 173.722  0.00  0.00    -0.572 OA
ENDBRANCH  74  75
ENDBRANCH  67  74
BRANCH  72  79
ATOM     79  C6  IDS d 506     -17.557  52.343 177.609  0.00  0.00     0.217 C 
ATOM     80  O61 IDS d 506     -18.719  52.427 177.983  0.00  0.00    -0.646 OA
ATOM     81  O62 IDS d 506     -16.723  51.971 178.416  0.00  0.00    -0.646 OA
ENDBRANCH  72  79
ENDBRANCH  65  66
ENDBRANCH  56  65
BRANCH  58  82
ATOM     82  C6  SGN d 505     -13.662  49.582 176.061  0.00  0.00     0.198 C 
BRANCH  82  83
ATOM     83  O6  SGN d 505     -14.333  48.689 176.883  0.00  0.00    -0.235 OA
BRANCH  83  84
ATOM     84  S2  SGN d 505     -13.879  48.163 178.237  0.00  0.00     0.252 S 
ATOM     85  O6S SGN d 505     -15.081  47.803 178.976  0.00  0.00    -0.572 OA
ATOM     86  O4S SGN d 505     -13.050  47.021 177.928  0.00  0.00    -0.572 OA
ATOM     87  O5S SGN d 505     -13.174  49.269 178.836  0.00  0.00    -0.572 OA
ENDBRANCH  83  84
ENDBRANCH  82  83
ENDBRANCH  58  82
ENDBRANCH  52  53
ENDBRANCH   7  52
TORSDOF 27

ENDMDL
MODEL 89
REMARK VINA RESULT:       5.8      3.832     11.202
REMARK  27 active torsions:
REMARK  status: ('A' for Active; 'I' for Inactive)
REMARK    1  A    between atoms: C2_1  and  O2_78 
REMARK    2  A    between atoms: C1_3  and  O4_50 
REMARK    3  A    between atoms: O4_5  and  C4_58 
REMARK    4  A    between atoms: O4_5  and  C1_27 
REMARK    5  A    between atoms: C2_6  and  N_39 
REMARK    6  A    between atoms: S1_9  and  N_39 
REMARK    7  A    between atoms: C6_10  and  C5_52 
REMARK    8  A    between atoms: C2_12  and  N_73 
REMARK    9  A    between atoms: C2_19  and  O2_24 
REMARK   10  A    between atoms: C2_21  and  O2_44 
REMARK   11  A    between atoms: S2_23  and  O6_65 
REMARK   12  A    between atoms: O2_24  and  S_54 
REMARK   13  A    between atoms: C1_28  and  O4_60 
REMARK   14  A    between atoms: C5_29  and  C6_38 
REMARK   15  A    between atoms: C5_30  and  C6_33 
REMARK   16  A    between atoms: S1_34  and  N_73 
REMARK   17  A    between atoms: C5_41  and  C6_46 
REMARK   18  A    between atoms: S_43  and  O2_44 
REMARK   19  A    between atoms: C6_46  and  O6_72 
REMARK   20  A    between atoms: O4_50  and  C4_71 
REMARK   21  A    between atoms: C1_56  and  O4_64 
REMARK   22  A    between atoms: O4_60  and  C4_83 
REMARK   23  A    between atoms: C4_61  and  O4_64 
REMARK   24  A    between atoms: S2_63  and  O6_72 
REMARK   25  A    between atoms: O6_65  and  C6_67 
REMARK   26  A    between atoms: C6_67  and  C5_75 
REMARK   27  A    between atoms: S_76  and  O2_78 
ROOT
ATOM      1  C2  IDS d 504     -15.532  47.957 174.450  0.00  0.00     0.226 C 
ATOM      2  O3  IDS d 504     -14.309  48.023 176.575  0.00  0.00    -0.218 OA
ATOM      3  O5  IDS d 504     -14.506  50.030 173.684  0.00  0.00    -0.318 OA
ATOM      4  C5  IDS d 504     -14.238  50.472 174.995  0.00  0.00     0.234 C 
ATOM      5  C1  IDS d 504     -14.515  48.606 173.532  0.00  0.00     0.269 C 
ATOM      6  C3  IDS d 504     -15.467  48.525 175.919  0.00  0.00     0.216 C 
ATOM      7  C4  IDS d 504     -15.365  50.043 175.933  0.00  0.00     0.189 C 
ENDROOT
BRANCH   5   8
ATOM      8  O4  SGN d 503     -13.265  48.033 173.784  0.00  0.00    -0.326 OA
BRANCH   8   9
ATOM      9  C4  SGN d 503     -12.349  48.194 172.751  0.00  0.00     0.180 C 
ATOM     10  C3  SGN d 503     -10.984  48.507 173.359  0.00  0.00     0.210 C 
ATOM     11  C2  SGN d 503      -9.947  48.465 172.251  0.00  0.00     0.207 C 
ATOM     12  O3  SGN d 503     -11.039  49.806 173.919  0.00  0.00    -0.218 OA
ATOM     13  C1  SGN d 503     -10.005  47.144 171.472  0.00  0.00     0.263 C 
ATOM     14  O5  SGN d 503     -11.300  46.958 170.957  0.00  0.00    -0.327 OA
ATOM     15  C5  SGN d 503     -12.282  46.887 171.942  0.00  0.00     0.179 C 
BRANCH  11  16
ATOM     16  N   SGN d 503      -8.609  48.692 172.770  0.00  0.00    -0.162 NA
BRANCH  16  17
ATOM     17  S1  SGN d 503      -7.788  49.975 172.198  0.00  0.00     0.227 S 
ATOM     18  O1S SGN d 503      -8.745  50.769 171.452  0.00  0.00    -0.577 OA
ATOM     19  O2S SGN d 503      -7.236  50.708 173.337  0.00  0.00    -0.577 OA
ATOM     20  O3S SGN d 503      -6.785  49.375 171.348  0.00  0.00    -0.577 OA
ENDBRANCH  16  17
ENDBRANCH  11  16
BRANCH  13  21
ATOM     21  O4  IDS d 502      -9.616  46.067 172.281  0.00  0.00    -0.326 OA
BRANCH  21  22
ATOM     22  C4  IDS d 502      -8.319  45.586 172.037  0.00  0.00     0.189 C 
ATOM     23  C3  IDS d 502      -7.570  45.420 173.373  0.00  0.00     0.216 C 
ATOM     24  O3  IDS d 502      -6.211  45.131 173.105  0.00  0.00    -0.218 OA
ATOM     25  C2  IDS d 502      -8.150  44.259 174.186  0.00  0.00     0.229 C 
ATOM     26  C1  IDS d 502      -8.316  43.000 173.341  0.00  0.00     0.301 C 
ATOM     27  O1  IDS d 502      -7.040  42.462 173.113  0.00  0.00    -0.187 OA
ATOM     28  O5  IDS d 502      -9.009  43.271 172.149  0.00  0.00    -0.316 OA
ATOM     29  C5  IDS d 502      -8.403  44.241 171.319  0.00  0.00     0.234 C 
BRANCH  25  30
ATOM     30  O2  IDS d 502      -9.420  44.656 174.630  0.00  0.00    -0.232 OA
BRANCH  30  31
ATOM     31  S   IDS d 502     -10.211  44.123 175.870  0.00  0.00     0.252 S 
ATOM     32  O3S IDS d 502     -11.027  43.054 175.354  0.00  0.00    -0.572 OA
ATOM     33  O2S IDS d 502     -10.970  45.247 176.367  0.00  0.00    -0.572 OA
ATOM     34  O1S IDS d 502      -9.243  43.653 176.822  0.00  0.00    -0.572 OA
ENDBRANCH  30  31
ENDBRANCH  25  30
BRANCH  29  35
ATOM     35  C6  IDS d 502      -9.096  44.299 169.964  0.00  0.00     0.216 C 
ATOM     36  O61 IDS d 502     -10.145  43.735 169.773  0.00  0.00    -0.646 OA
ATOM     37  O62 IDS d 502      -8.611  44.922 169.039  0.00  0.00    -0.646 OA
ENDBRANCH  29  35
ENDBRANCH  21  22
ENDBRANCH  13  21
BRANCH  15  38
ATOM     38  C6  SGN d 503     -13.545  46.552 171.196  0.00  0.00     0.198 C 
BRANCH  38  39
ATOM     39  O6  SGN d 503     -13.367  46.958 169.856  0.00  0.00    -0.235 OA
BRANCH  39  40
ATOM     40  S2  SGN d 503     -14.175  48.068 169.134  0.00  0.00     0.252 S 
ATOM     41  O4S SGN d 503     -15.496  47.587 168.912  0.00  0.00    -0.572 OA
ATOM     42  O5S SGN d 503     -14.160  49.241 170.002  0.00  0.00    -0.572 OA
ATOM     43  O6S SGN d 503     -13.503  48.225 167.903  0.00  0.00    -0.572 OA
ENDBRANCH  39  40
ENDBRANCH  38  39
ENDBRANCH  15  38
ENDBRANCH   8   9
ENDBRANCH   5   8
BRANCH   1  44
ATOM     44  O2  IDS d 504     -16.830  48.157 173.894  0.00  0.00    -0.233 OA
BRANCH  44  45
ATOM     45  S   IDS d 504     -17.501  47.313 172.796  0.00  0.00     0.252 S 
ATOM     46  O3S IDS d 504     -17.314  48.081 171.623  0.00  0.00    -0.572 OA
ATOM     47  O2S IDS d 504     -18.869  47.116 173.176  0.00  0.00    -0.572 OA
ATOM     48  O1S IDS d 504     -16.792  46.087 172.744  0.00  0.00    -0.572 OA
ENDBRANCH  44  45
ENDBRANCH   1  44
BRANCH   4  49
ATOM     49  C6  IDS d 504     -13.921  51.977 175.001  0.00  0.00     0.216 C 
ATOM     50  O62 IDS d 504     -13.624  52.569 173.961  0.00  0.00    -0.646 OA
ATOM     51  O61 IDS d 504     -13.940  52.620 176.043  0.00  0.00    -0.646 OA
ENDBRANCH   4  49
BRANCH   7  52
ATOM     52  O4  IDS d 504     -16.598  50.600 175.502  0.00  0.00    -0.326 OA
BRANCH  52  53
ATOM     53  C1  SGN d 505     -17.475  50.914 176.550  0.00  0.00     0.263 C 
ATOM     54  C2  SGN d 505     -18.918  50.649 176.167  0.00  0.00     0.207 C 
ATOM     55  C3  SGN d 505     -19.372  51.610 175.052  0.00  0.00     0.210 C 
ATOM     56  C4  SGN d 505     -19.147  53.043 175.614  0.00  0.00     0.180 C 
ATOM     57  O3  SGN d 505     -20.753  51.385 174.798  0.00  0.00    -0.218 OA
ATOM     58  C5  SGN d 505     -17.688  53.157 175.920  0.00  0.00     0.179 C 
ATOM     59  O5  SGN d 505     -17.330  52.255 176.922  0.00  0.00    -0.327 OA
BRANCH  54  60
ATOM     60  N   SGN d 505     -19.088  49.207 175.870  0.00  0.00    -0.162 NA
BRANCH  60  61
ATOM     61  S1  SGN d 505     -20.164  48.343 176.822  0.00  0.00     0.227 S 
ATOM     62  O3S SGN d 505     -19.395  47.443 177.603  0.00  0.00    -0.577 OA
ATOM     63  O1S SGN d 505     -20.904  49.297 177.621  0.00  0.00    -0.577 OA
ATOM     64  O2S SGN d 505     -21.007  47.639 175.884  0.00  0.00    -0.577 OA
ENDBRANCH  60  61
ENDBRANCH  54  60
BRANCH  56  65
ATOM     65  O4  SGN d 505     -19.437  54.100 174.723  0.00  0.00    -0.326 OA
BRANCH  65  66
ATOM     66  C1  IDS d 506     -20.703  54.641 174.561  0.00  0.00     0.269 C 
ATOM     67  C2  IDS d 506     -20.784  55.314 173.183  0.00  0.00     0.226 C 
ATOM     68  C3  IDS d 506     -22.022  56.238 173.022  0.00  0.00     0.219 C 
ATOM     69  O3  IDS d 506     -23.141  55.435 172.655  0.00  0.00    -0.218 OA
ATOM     70  C4  IDS d 506     -22.381  57.025 174.300  0.00  0.00     0.223 C 
ATOM     71  O4  IDS d 506     -21.532  58.148 174.351  0.00  0.00    -0.217 OA
ATOM     72  C5  IDS d 506     -22.170  56.160 175.547  0.00  0.00     0.237 C 
ATOM     73  O5  IDS d 506     -20.888  55.626 175.546  0.00  0.00    -0.318 OA
BRANCH  67  74
ATOM     74  O2  IDS d 506     -19.641  56.119 172.968  0.00  0.00    -0.233 OA
BRANCH  74  75
ATOM     75  S   IDS d 506     -18.508  55.945 171.868  0.00  0.00     0.252 S 
ATOM     76  O1S IDS d 506     -18.734  57.003 170.931  0.00  0.00    -0.572 OA
ATOM     77  O2S IDS d 506     -17.234  56.090 172.513  0.00  0.00    -0.572 OA
ATOM     78  O3S IDS d 506     -18.715  54.629 171.303  0.00  0.00    -0.572 OA
ENDBRANCH  74  75
ENDBRANCH  67  74
BRANCH  72  79
ATOM     79  C6  IDS d 506     -22.439  56.822 176.886  0.00  0.00     0.217 C 
ATOM     80  O61 IDS d 506     -23.405  57.561 177.020  0.00  0.00    -0.646 OA
ATOM     81  O62 IDS d 506     -21.709  56.656 177.847  0.00  0.00    -0.646 OA
ENDBRANCH  72  79
ENDBRANCH  65  66
ENDBRANCH  56  65
BRANCH  58  82
ATOM     82  C6  SGN d 505     -17.305  54.512 176.420  0.00  0.00     0.198 C 
BRANCH  82  83
ATOM     83  O6  SGN d 505     -16.295  54.940 175.573  0.00  0.00    -0.235 OA
BRANCH  83  84
ATOM     84  S2  SGN d 505     -15.356  56.120 175.779  0.00  0.00     0.252 S 
ATOM     85  O6S SGN d 505     -14.306  56.007 174.776  0.00  0.00    -0.572 OA
ATOM     86  O4S SGN d 505     -16.186  57.287 175.589  0.00  0.00    -0.572 OA
ATOM     87  O5S SGN d 505     -14.856  55.954 177.121  0.00  0.00    -0.572 OA
ENDBRANCH  83  84
ENDBRANCH  82  83
ENDBRANCH  58  82
ENDBRANCH  52  53
ENDBRANCH   7  52
TORSDOF 27

ENDMDL
MODEL 90
REMARK VINA RESULT:       5.9      2.967     10.516
REMARK  27 active torsions:
REMARK  status: ('A' for Active; 'I' for Inactive)
REMARK    1  A    between atoms: C2_1  and  O2_78 
REMARK    2  A    between atoms: C1_3  and  O4_50 
REMARK    3  A    between atoms: O4_5  and  C4_58 
REMARK    4  A    between atoms: O4_5  and  C1_27 
REMARK    5  A    between atoms: C2_6  and  N_39 
REMARK    6  A    between atoms: S1_9  and  N_39 
REMARK    7  A    between atoms: C6_10  and  C5_52 
REMARK    8  A    between atoms: C2_12  and  N_73 
REMARK    9  A    between atoms: C2_19  and  O2_24 
REMARK   10  A    between atoms: C2_21  and  O2_44 
REMARK   11  A    between atoms: S2_23  and  O6_65 
REMARK   12  A    between atoms: O2_24  and  S_54 
REMARK   13  A    between atoms: C1_28  and  O4_60 
REMARK   14  A    between atoms: C5_29  and  C6_38 
REMARK   15  A    between atoms: C5_30  and  C6_33 
REMARK   16  A    between atoms: S1_34  and  N_73 
REMARK   17  A    between atoms: C5_41  and  C6_46 
REMARK   18  A    between atoms: S_43  and  O2_44 
REMARK   19  A    between atoms: C6_46  and  O6_72 
REMARK   20  A    between atoms: O4_50  and  C4_71 
REMARK   21  A    between atoms: C1_56  and  O4_64 
REMARK   22  A    between atoms: O4_60  and  C4_83 
REMARK   23  A    between atoms: C4_61  and  O4_64 
REMARK   24  A    between atoms: S2_63  and  O6_72 
REMARK   25  A    between atoms: O6_65  and  C6_67 
REMARK   26  A    between atoms: C6_67  and  C5_75 
REMARK   27  A    between atoms: S_76  and  O2_78 
ROOT
ATOM      1  C2  IDS d 504     -12.808  45.980 174.218  0.00  0.00     0.226 C 
ATOM      2  O3  IDS d 504     -13.051  46.497 176.603  0.00  0.00    -0.218 OA
ATOM      3  O5  IDS d 504     -11.560  48.031 173.801  0.00  0.00    -0.318 OA
ATOM      4  C5  IDS d 504     -12.111  48.685 174.921  0.00  0.00     0.234 C 
ATOM      5  C1  IDS d 504     -11.458  46.610 173.941  0.00  0.00     0.269 C 
ATOM      6  C3  IDS d 504     -13.619  46.758 175.325  0.00  0.00     0.216 C 
ATOM      7  C4  IDS d 504     -13.566  48.262 175.111  0.00  0.00     0.189 C 
ENDROOT
BRANCH   5   8
ATOM      8  O4  SGN d 503     -10.579  46.233 174.961  0.00  0.00    -0.326 OA
BRANCH   8   9
ATOM      9  C4  SGN d 503      -9.351  45.765 174.508  0.00  0.00     0.180 C 
ATOM     10  C3  SGN d 503      -9.591  44.878 173.289  0.00  0.00     0.210 C 
ATOM     11  C2  SGN d 503      -8.247  44.548 172.665  0.00  0.00     0.207 C 
ATOM     12  O3  SGN d 503     -10.224  43.690 173.726  0.00  0.00    -0.218 OA
ATOM     13  C1  SGN d 503      -7.432  45.817 172.375  0.00  0.00     0.263 C 
ATOM     14  O5  SGN d 503      -7.270  46.553 173.562  0.00  0.00    -0.327 OA
ATOM     15  C5  SGN d 503      -8.475  46.970 174.123  0.00  0.00     0.179 C 
BRANCH  11  16
ATOM     16  N   SGN d 503      -8.403  43.757 171.458  0.00  0.00    -0.162 NA
BRANCH  16  17
ATOM     17  S1  SGN d 503      -7.299  42.596 171.171  0.00  0.00     0.227 S 
ATOM     18  O1S SGN d 503      -7.848  41.769 170.113  0.00  0.00    -0.577 OA
ATOM     19  O2S SGN d 503      -6.051  43.243 170.770  0.00  0.00    -0.577 OA
ATOM     20  O3S SGN d 503      -7.217  41.897 172.433  0.00  0.00    -0.577 OA
ENDBRANCH  16  17
ENDBRANCH  11  16
BRANCH  13  21
ATOM     21  O4  IDS d 502      -8.041  46.585 171.373  0.00  0.00    -0.326 OA
BRANCH  21  22
ATOM     22  C4  IDS d 502      -7.253  46.791 170.229  0.00  0.00     0.189 C 
ATOM     23  C3  IDS d 502      -8.116  46.597 168.967  0.00  0.00     0.216 C 
ATOM     24  O3  IDS d 502      -7.274  46.607 167.830  0.00  0.00    -0.218 OA
ATOM     25  C2  IDS d 502      -9.130  47.734 168.816  0.00  0.00     0.229 C 
ATOM     26  C1  IDS d 502      -8.479  49.103 168.988  0.00  0.00     0.301 C 
ATOM     27  O1  IDS d 502      -7.717  49.366 167.840  0.00  0.00    -0.187 OA
ATOM     28  O5  IDS d 502      -7.718  49.163 170.168  0.00  0.00    -0.316 OA
ATOM     29  C5  IDS d 502      -6.681  48.206 170.253  0.00  0.00     0.234 C 
BRANCH  25  30
ATOM     30  O2  IDS d 502     -10.086  47.577 169.831  0.00  0.00    -0.232 OA
BRANCH  30  31
ATOM     31  S   IDS d 502     -11.640  47.713 169.712  0.00  0.00     0.252 S 
ATOM     32  O3S IDS d 502     -12.012  48.612 170.774  0.00  0.00    -0.572 OA
ATOM     33  O2S IDS d 502     -12.166  46.377 169.868  0.00  0.00    -0.572 OA
ATOM     34  O1S IDS d 502     -11.921  48.263 168.415  0.00  0.00    -0.572 OA
ENDBRANCH  30  31
ENDBRANCH  25  30
BRANCH  29  35
ATOM     35  C6  IDS d 502      -5.779  48.494 171.446  0.00  0.00     0.216 C 
ATOM     36  O61 IDS d 502      -4.737  47.906 171.600  0.00  0.00    -0.646 OA
ATOM     37  O62 IDS d 502      -6.084  49.331 172.273  0.00  0.00    -0.646 OA
ENDBRANCH  29  35
ENDBRANCH  21  22
ENDBRANCH  13  21
BRANCH  15  38
ATOM     38  C6  SGN d 503      -8.073  47.842 175.281  0.00  0.00     0.198 C 
BRANCH  38  39
ATOM     39  O6  SGN d 503      -8.254  49.184 174.885  0.00  0.00    -0.235 OA
BRANCH  39  40
ATOM     40  S2  SGN d 503      -7.433  50.396 175.401  0.00  0.00     0.252 S 
ATOM     41  O4S SGN d 503      -7.968  50.797 176.657  0.00  0.00    -0.572 OA
ATOM     42  O5S SGN d 503      -6.046  49.955 175.515  0.00  0.00    -0.572 OA
ATOM     43  O6S SGN d 503      -7.666  51.395 174.433  0.00  0.00    -0.572 OA
ENDBRANCH  39  40
ENDBRANCH  38  39
ENDBRANCH  15  38
ENDBRANCH   8   9
ENDBRANCH   5   8
BRANCH   1  44
ATOM     44  O2  IDS d 504     -13.544  45.942 172.996  0.00  0.00    -0.233 OA
BRANCH  44  45
ATOM     45  S   IDS d 504     -14.296  44.731 172.414  0.00  0.00     0.252 S 
ATOM     46  O3S IDS d 504     -13.368  43.670 172.539  0.00  0.00    -0.572 OA
ATOM     47  O2S IDS d 504     -14.662  45.056 171.066  0.00  0.00    -0.572 OA
ATOM     48  O1S IDS d 504     -15.436  44.537 173.233  0.00  0.00    -0.572 OA
ENDBRANCH  44  45
ENDBRANCH   1  44
BRANCH   4  49
ATOM     49  C6  IDS d 504     -11.879  50.202 174.825  0.00  0.00     0.216 C 
ATOM     50  O62 IDS d 504     -11.040  50.765 175.531  0.00  0.00    -0.646 OA
ATOM     51  O61 IDS d 504     -12.536  50.892 174.056  0.00  0.00    -0.646 OA
ENDBRANCH   4  49
BRANCH   7  52
ATOM     52  O4  IDS d 504     -14.327  48.600 173.960  0.00  0.00    -0.326 OA
BRANCH  52  53
ATOM     53  C1  SGN d 505     -15.709  48.434 174.125  0.00  0.00     0.263 C 
ATOM     54  C2  SGN d 505     -16.482  48.997 172.948  0.00  0.00     0.207 C 
ATOM     55  C3  SGN d 505     -16.335  50.529 172.881  0.00  0.00     0.210 C 
ATOM     56  C4  SGN d 505     -16.843  51.061 174.252  0.00  0.00     0.180 C 
ATOM     57  O3  SGN d 505     -17.152  51.015 171.823  0.00  0.00    -0.218 OA
ATOM     58  C5  SGN d 505     -15.977  50.441 175.299  0.00  0.00     0.179 C 
ATOM     59  O5  SGN d 505     -16.137  49.055 175.304  0.00  0.00    -0.327 OA
BRANCH  54  60
ATOM     60  N   SGN d 505     -16.098  48.268 171.717  0.00  0.00    -0.162 NA
BRANCH  60  61
ATOM     61  S1  SGN d 505     -17.317  47.502 170.859  0.00  0.00     0.227 S 
ATOM     62  O3S SGN d 505     -16.804  47.228 169.564  0.00  0.00    -0.577 OA
ATOM     63  O1S SGN d 505     -17.679  46.304 171.589  0.00  0.00    -0.577 OA
ATOM     64  O2S SGN d 505     -18.395  48.462 170.806  0.00  0.00    -0.577 OA
ENDBRANCH  60  61
ENDBRANCH  54  60
BRANCH  56  65
ATOM     65  O4  SGN d 505     -16.736  52.457 174.442  0.00  0.00    -0.326 OA
BRANCH  65  66
ATOM     66  C1  IDS d 506     -17.736  53.356 174.102  0.00  0.00     0.269 C 
ATOM     67  C2  IDS d 506     -17.305  54.765 174.534  0.00  0.00     0.226 C 
ATOM     68  C3  IDS d 506     -18.467  55.796 174.517  0.00  0.00     0.219 C 
ATOM     69  O3  IDS d 506     -18.617  56.287 173.188  0.00  0.00    -0.218 OA
ATOM     70  C4  IDS d 506     -19.820  55.215 174.981  0.00  0.00     0.223 C 
ATOM     71  O4  IDS d 506     -19.816  55.220 176.390  0.00  0.00    -0.217 OA
ATOM     72  C5  IDS d 506     -19.998  53.781 174.470  0.00  0.00     0.237 C 
ATOM     73  O5  IDS d 506     -18.896  53.010 174.817  0.00  0.00    -0.318 OA
BRANCH  67  74
ATOM     74  O2  IDS d 506     -16.801  54.736 175.855  0.00  0.00    -0.233 OA
BRANCH  74  75
ATOM     75  S   IDS d 506     -15.363  55.172 176.369  0.00  0.00     0.252 S 
ATOM     76  O1S IDS d 506     -14.601  55.413 175.183  0.00  0.00    -0.572 OA
ATOM     77  O2S IDS d 506     -15.510  56.374 177.141  0.00  0.00    -0.572 OA
ATOM     78  O3S IDS d 506     -14.873  54.052 177.144  0.00  0.00    -0.572 OA
ENDBRANCH  74  75
ENDBRANCH  67  74
BRANCH  72  79
ATOM     79  C6  IDS d 506     -21.267  53.064 174.891  0.00  0.00     0.217 C 
ATOM     80  O61 IDS d 506     -21.236  52.250 175.803  0.00  0.00    -0.646 OA
ATOM     81  O62 IDS d 506     -22.335  53.259 174.335  0.00  0.00    -0.646 OA
ENDBRANCH  72  79
ENDBRANCH  65  66
ENDBRANCH  56  65
BRANCH  58  82
ATOM     82  C6  SGN d 505     -16.311  50.906 176.679  0.00  0.00     0.198 C 
BRANCH  82  83
ATOM     83  O6  SGN d 505     -15.602  50.068 177.526  0.00  0.00    -0.235 OA
BRANCH  83  84
ATOM     84  S2  SGN d 505     -14.460  50.450 178.457  0.00  0.00     0.252 S 
ATOM     85  O6S SGN d 505     -13.529  51.254 177.677  0.00  0.00    -0.572 OA
ATOM     86  O4S SGN d 505     -15.089  51.199 179.521  0.00  0.00    -0.572 OA
ATOM     87  O5S SGN d 505     -13.891  49.191 178.868  0.00  0.00    -0.572 OA
ENDBRANCH  83  84
ENDBRANCH  82  83
ENDBRANCH  58  82
ENDBRANCH  52  53
ENDBRANCH   7  52
TORSDOF 27

ENDMDL
MODEL 91
REMARK VINA RESULT:       5.9      2.645      6.899
REMARK  27 active torsions:
REMARK  status: ('A' for Active; 'I' for Inactive)
REMARK    1  A    between atoms: C2_1  and  O2_78 
REMARK    2  A    between atoms: C1_3  and  O4_50 
REMARK    3  A    between atoms: O4_5  and  C4_58 
REMARK    4  A    between atoms: O4_5  and  C1_27 
REMARK    5  A    between atoms: C2_6  and  N_39 
REMARK    6  A    between atoms: S1_9  and  N_39 
REMARK    7  A    between atoms: C6_10  and  C5_52 
REMARK    8  A    between atoms: C2_12  and  N_73 
REMARK    9  A    between atoms: C2_19  and  O2_24 
REMARK   10  A    between atoms: C2_21  and  O2_44 
REMARK   11  A    between atoms: S2_23  and  O6_65 
REMARK   12  A    between atoms: O2_24  and  S_54 
REMARK   13  A    between atoms: C1_28  and  O4_60 
REMARK   14  A    between atoms: C5_29  and  C6_38 
REMARK   15  A    between atoms: C5_30  and  C6_33 
REMARK   16  A    between atoms: S1_34  and  N_73 
REMARK   17  A    between atoms: C5_41  and  C6_46 
REMARK   18  A    between atoms: S_43  and  O2_44 
REMARK   19  A    between atoms: C6_46  and  O6_72 
REMARK   20  A    between atoms: O4_50  and  C4_71 
REMARK   21  A    between atoms: C1_56  and  O4_64 
REMARK   22  A    between atoms: O4_60  and  C4_83 
REMARK   23  A    between atoms: C4_61  and  O4_64 
REMARK   24  A    between atoms: S2_63  and  O6_72 
REMARK   25  A    between atoms: O6_65  and  C6_67 
REMARK   26  A    between atoms: C6_67  and  C5_75 
REMARK   27  A    between atoms: S_76  and  O2_78 
ROOT
ATOM      1  C2  IDS d 504     -16.227  45.039 172.726  0.00  0.00     0.226 C 
ATOM      2  O3  IDS d 504     -16.550  44.226 170.435  0.00  0.00    -0.218 OA
ATOM      3  O5  IDS d 504     -15.988  47.345 171.978  0.00  0.00    -0.318 OA
ATOM      4  C5  IDS d 504     -15.581  46.964 170.683  0.00  0.00     0.234 C 
ATOM      5  C1  IDS d 504     -16.862  46.410 172.619  0.00  0.00     0.269 C 
ATOM      6  C3  IDS d 504     -15.547  44.583 171.378  0.00  0.00     0.216 C 
ATOM      7  C4  IDS d 504     -14.725  45.701 170.755  0.00  0.00     0.189 C 
ENDROOT
BRANCH   5   8
ATOM      8  O4  SGN d 503     -18.085  46.277 171.954  0.00  0.00    -0.326 OA
BRANCH   8   9
ATOM      9  C4  SGN d 503     -19.122  47.008 172.524  0.00  0.00     0.180 C 
ATOM     10  C3  SGN d 503     -18.972  46.958 174.043  0.00  0.00     0.210 C 
ATOM     11  C2  SGN d 503     -19.966  47.929 174.653  0.00  0.00     0.207 C 
ATOM     12  O3  SGN d 503     -19.261  45.641 174.471  0.00  0.00    -0.218 OA
ATOM     13  C1  SGN d 503     -19.828  49.334 174.049  0.00  0.00     0.263 C 
ATOM     14  O5  SGN d 503     -19.985  49.263 172.654  0.00  0.00    -0.327 OA
ATOM     15  C5  SGN d 503     -19.031  48.462 172.030  0.00  0.00     0.179 C 
BRANCH  11  16
ATOM     16  N   SGN d 503     -19.834  47.982 176.099  0.00  0.00    -0.162 NA
BRANCH  16  17
ATOM     17  S1  SGN d 503     -21.107  47.495 176.989  0.00  0.00     0.227 S 
ATOM     18  O1S SGN d 503     -20.641  46.372 177.781  0.00  0.00    -0.577 OA
ATOM     19  O2S SGN d 503     -21.535  48.616 177.825  0.00  0.00    -0.577 OA
ATOM     20  O3S SGN d 503     -22.078  47.104 175.992  0.00  0.00    -0.577 OA
ENDBRANCH  16  17
ENDBRANCH  11  16
BRANCH  13  21
ATOM     21  O4  IDS d 502     -18.599  49.911 174.398  0.00  0.00    -0.326 OA
BRANCH  21  22
ATOM     22  C4  IDS d 502     -18.688  51.208 174.930  0.00  0.00     0.189 C 
ATOM     23  C3  IDS d 502     -18.394  51.168 176.442  0.00  0.00     0.216 C 
ATOM     24  O3  IDS d 502     -18.682  52.435 177.000  0.00  0.00    -0.218 OA
ATOM     25  C2  IDS d 502     -16.917  50.859 176.704  0.00  0.00     0.229 C 
ATOM     26  C1  IDS d 502     -15.994  51.730 175.858  0.00  0.00     0.301 C 
ATOM     27  O1  IDS d 502     -16.021  53.028 176.387  0.00  0.00    -0.187 OA
ATOM     28  O5  IDS d 502     -16.358  51.691 174.501  0.00  0.00    -0.316 OA
ATOM     29  C5  IDS d 502     -17.679  52.115 174.229  0.00  0.00     0.234 C 
BRANCH  25  30
ATOM     30  O2  IDS d 502     -16.702  49.520 176.345  0.00  0.00    -0.232 OA
BRANCH  30  31
ATOM     31  S   IDS d 502     -15.619  48.540 176.907  0.00  0.00     0.252 S 
ATOM     32  O3S IDS d 502     -14.743  48.284 175.794  0.00  0.00    -0.572 OA
ATOM     33  O2S IDS d 502     -16.340  47.374 177.361  0.00  0.00    -0.572 OA
ATOM     34  O1S IDS d 502     -14.946  49.218 177.980  0.00  0.00    -0.572 OA
ENDBRANCH  30  31
ENDBRANCH  25  30
BRANCH  29  35
ATOM     35  C6  IDS d 502     -17.902  52.255 172.730  0.00  0.00     0.216 C 
ATOM     36  O61 IDS d 502     -19.012  52.362 172.269  0.00  0.00    -0.646 OA
ATOM     37  O62 IDS d 502     -16.964  52.269 171.956  0.00  0.00    -0.646 OA
ENDBRANCH  29  35
ENDBRANCH  21  22
ENDBRANCH  13  21
BRANCH  15  38
ATOM     38  C6  SGN d 503     -19.294  48.636 170.559  0.00  0.00     0.198 C 
BRANCH  38  39
ATOM     39  O6  SGN d 503     -20.582  49.195 170.420  0.00  0.00    -0.235 OA
BRANCH  39  40
ATOM     40  S2  SGN d 503     -21.790  48.517 169.722  0.00  0.00     0.252 S 
ATOM     41  O4S SGN d 503     -21.838  47.155 170.135  0.00  0.00    -0.572 OA
ATOM     42  O5S SGN d 503     -22.985  49.252 170.125  0.00  0.00    -0.572 OA
ATOM     43  O6S SGN d 503     -21.473  48.596 168.349  0.00  0.00    -0.572 OA
ENDBRANCH  39  40
ENDBRANCH  38  39
ENDBRANCH  15  38
ENDBRANCH   8   9
ENDBRANCH   5   8
BRANCH   1  44
ATOM     44  O2  IDS d 504     -15.268  45.070 173.782  0.00  0.00    -0.233 OA
BRANCH  44  45
ATOM     45  S   IDS d 504     -15.237  44.160 175.023  0.00  0.00     0.252 S 
ATOM     46  O3S IDS d 504     -16.371  44.567 175.764  0.00  0.00    -0.572 OA
ATOM     47  O2S IDS d 504     -13.980  44.367 175.681  0.00  0.00    -0.572 OA
ATOM     48  O1S IDS d 504     -15.364  42.831 174.548  0.00  0.00    -0.572 OA
ENDBRANCH  44  45
ENDBRANCH   1  44
BRANCH   4  49
ATOM     49  C6  IDS d 504     -14.932  48.152 169.953  0.00  0.00     0.216 C 
ATOM     50  O62 IDS d 504     -14.826  48.163 168.725  0.00  0.00    -0.646 OA
ATOM     51  O61 IDS d 504     -14.487  49.107 170.576  0.00  0.00    -0.646 OA
ENDBRANCH   4  49
BRANCH   7  52
ATOM     52  O4  IDS d 504     -13.572  45.936 171.550  0.00  0.00    -0.326 OA
BRANCH  52  53
ATOM     53  C1  SGN d 505     -12.394  45.397 171.014  0.00  0.00     0.263 C 
ATOM     54  C2  SGN d 505     -11.450  44.928 172.103  0.00  0.00     0.207 C 
ATOM     55  C3  SGN d 505     -10.927  46.122 172.925  0.00  0.00     0.210 C 
ATOM     56  C4  SGN d 505     -10.246  47.073 171.899  0.00  0.00     0.180 C 
ATOM     57  O3  SGN d 505      -9.977  45.640 173.866  0.00  0.00    -0.218 OA
ATOM     58  C5  SGN d 505     -11.299  47.463 170.913  0.00  0.00     0.179 C 
ATOM     59  O5  SGN d 505     -11.746  46.343 170.212  0.00  0.00    -0.327 OA
BRANCH  54  60
ATOM     60  N   SGN d 505     -12.104  43.855 172.889  0.00  0.00    -0.162 NA
BRANCH  60  61
ATOM     61  S1  SGN d 505     -11.912  42.278 172.354  0.00  0.00     0.227 S 
ATOM     62  O3S SGN d 505     -11.262  41.564 173.395  0.00  0.00    -0.577 OA
ATOM     63  O1S SGN d 505     -13.228  41.757 172.047  0.00  0.00    -0.577 OA
ATOM     64  O2S SGN d 505     -11.073  42.382 171.183  0.00  0.00    -0.577 OA
ENDBRANCH  60  61
ENDBRANCH  54  60
BRANCH  56  65
ATOM     65  O4  SGN d 505      -9.747  48.283 172.428  0.00  0.00    -0.326 OA
BRANCH  65  66
ATOM     66  C1  IDS d 506      -8.475  48.419 172.964  0.00  0.00     0.269 C 
ATOM     67  C2  IDS d 506      -8.522  49.453 174.098  0.00  0.00     0.226 C 
ATOM     68  C3  IDS d 506      -7.115  49.939 174.546  0.00  0.00     0.219 C 
ATOM     69  O3  IDS d 506      -6.587  48.996 175.476  0.00  0.00    -0.218 OA
ATOM     70  C4  IDS d 506      -6.113  50.096 173.383  0.00  0.00     0.223 C 
ATOM     71  O4  IDS d 506      -6.366  51.343 172.779  0.00  0.00    -0.217 OA
ATOM     72  C5  IDS d 506      -6.296  48.976 172.354  0.00  0.00     0.237 C 
ATOM     73  O5  IDS d 506      -7.625  48.905 171.956  0.00  0.00    -0.318 OA
BRANCH  67  74
ATOM     74  O2  IDS d 506      -9.237  50.600 173.681  0.00  0.00    -0.233 OA
BRANCH  74  75
ATOM     75  S   IDS d 506     -10.445  51.327 174.413  0.00  0.00     0.252 S 
ATOM     76  O1S IDS d 506     -10.610  52.566 173.719  0.00  0.00    -0.572 OA
ATOM     77  O2S IDS d 506     -11.611  50.500 174.278  0.00  0.00    -0.572 OA
ATOM     78  O3S IDS d 506     -10.021  51.495 175.787  0.00  0.00    -0.572 OA
ENDBRANCH  74  75
ENDBRANCH  67  74
BRANCH  72  79
ATOM     79  C6  IDS d 506      -5.406  49.030 171.126  0.00  0.00     0.217 C 
ATOM     80  O61 IDS d 506      -4.218  48.750 171.219  0.00  0.00    -0.646 OA
ATOM     81  O62 IDS d 506      -5.831  49.363 170.033  0.00  0.00    -0.646 OA
ENDBRANCH  72  79
ENDBRANCH  65  66
ENDBRANCH  56  65
BRANCH  58  82
ATOM     82  C6  SGN d 505     -10.804  48.430 169.887  0.00  0.00     0.198 C 
BRANCH  82  83
ATOM     83  O6  SGN d 505      -9.804  47.754 169.204  0.00  0.00    -0.235 OA
BRANCH  83  84
ATOM     84  S2  SGN d 505      -9.268  48.062 167.814  0.00  0.00     0.252 S 
ATOM     85  O6S SGN d 505      -8.616  46.851 167.333  0.00  0.00    -0.572 OA
ATOM     86  O4S SGN d 505     -10.437  48.411 167.038  0.00  0.00    -0.572 OA
ATOM     87  O5S SGN d 505      -8.340  49.146 168.016  0.00  0.00    -0.572 OA
ENDBRANCH  83  84
ENDBRANCH  82  83
ENDBRANCH  58  82
ENDBRANCH  52  53
ENDBRANCH   7  52
TORSDOF 27

ENDMDL
MODEL 92
REMARK VINA RESULT:       5.9      3.901      7.075
REMARK  27 active torsions:
REMARK  status: ('A' for Active; 'I' for Inactive)
REMARK    1  A    between atoms: C2_1  and  O2_78 
REMARK    2  A    between atoms: C1_3  and  O4_50 
REMARK    3  A    between atoms: O4_5  and  C4_58 
REMARK    4  A    between atoms: O4_5  and  C1_27 
REMARK    5  A    between atoms: C2_6  and  N_39 
REMARK    6  A    between atoms: S1_9  and  N_39 
REMARK    7  A    between atoms: C6_10  and  C5_52 
REMARK    8  A    between atoms: C2_12  and  N_73 
REMARK    9  A    between atoms: C2_19  and  O2_24 
REMARK   10  A    between atoms: C2_21  and  O2_44 
REMARK   11  A    between atoms: S2_23  and  O6_65 
REMARK   12  A    between atoms: O2_24  and  S_54 
REMARK   13  A    between atoms: C1_28  and  O4_60 
REMARK   14  A    between atoms: C5_29  and  C6_38 
REMARK   15  A    between atoms: C5_30  and  C6_33 
REMARK   16  A    between atoms: S1_34  and  N_73 
REMARK   17  A    between atoms: C5_41  and  C6_46 
REMARK   18  A    between atoms: S_43  and  O2_44 
REMARK   19  A    between atoms: C6_46  and  O6_72 
REMARK   20  A    between atoms: O4_50  and  C4_71 
REMARK   21  A    between atoms: C1_56  and  O4_64 
REMARK   22  A    between atoms: O4_60  and  C4_83 
REMARK   23  A    between atoms: C4_61  and  O4_64 
REMARK   24  A    between atoms: S2_63  and  O6_72 
REMARK   25  A    between atoms: O6_65  and  C6_67 
REMARK   26  A    between atoms: C6_67  and  C5_75 
REMARK   27  A    between atoms: S_76  and  O2_78 
ROOT
ATOM      1  C2  IDS d 504     -18.180  49.975 175.643  0.00  0.00     0.226 C 
ATOM      2  O3  IDS d 504     -19.347  47.843 175.315  0.00  0.00    -0.218 OA
ATOM      3  O5  IDS d 504     -17.697  50.189 173.265  0.00  0.00    -0.318 OA
ATOM      4  C5  IDS d 504     -17.791  48.800 173.042  0.00  0.00     0.234 C 
ATOM      5  C1  IDS d 504     -18.513  50.670 174.339  0.00  0.00     0.269 C 
ATOM      6  C3  IDS d 504     -18.054  48.411 175.478  0.00  0.00     0.216 C 
ATOM      7  C4  IDS d 504     -17.242  48.039 174.247  0.00  0.00     0.189 C 
ENDROOT
BRANCH   5   8
ATOM      8  O4  SGN d 503     -19.879  50.505 174.089  0.00  0.00    -0.326 OA
BRANCH   8   9
ATOM      9  C4  SGN d 503     -20.547  51.688 173.792  0.00  0.00     0.180 C 
ATOM     10  C3  SGN d 503     -20.182  52.728 174.849  0.00  0.00     0.210 C 
ATOM     11  C2  SGN d 503     -20.731  54.072 174.406  0.00  0.00     0.207 C 
ATOM     12  O3  SGN d 503     -20.780  52.343 176.072  0.00  0.00    -0.218 OA
ATOM     13  C1  SGN d 503     -20.276  54.429 172.983  0.00  0.00     0.263 C 
ATOM     14  O5  SGN d 503     -20.665  53.409 172.097  0.00  0.00    -0.327 OA
ATOM     15  C5  SGN d 503     -20.104  52.169 172.400  0.00  0.00     0.179 C 
BRANCH  11  16
ATOM     16  N   SGN d 503     -20.365  55.126 175.336  0.00  0.00    -0.162 NA
BRANCH  16  17
ATOM     17  S1  SGN d 503     -21.557  56.075 175.906  0.00  0.00     0.227 S 
ATOM     18  O1S SGN d 503     -22.741  55.239 175.977  0.00  0.00    -0.577 OA
ATOM     19  O2S SGN d 503     -21.156  56.572 177.222  0.00  0.00    -0.577 OA
ATOM     20  O3S SGN d 503     -21.669  57.108 174.901  0.00  0.00    -0.577 OA
ENDBRANCH  16  17
ENDBRANCH  11  16
BRANCH  13  21
ATOM     21  O4  IDS d 502     -18.892  54.647 172.939  0.00  0.00    -0.326 OA
BRANCH  21  22
ATOM     22  C4  IDS d 502     -18.506  55.994 173.029  0.00  0.00     0.189 C 
ATOM     23  C3  IDS d 502     -17.278  56.119 173.951  0.00  0.00     0.216 C 
ATOM     24  O3  IDS d 502     -17.024  57.489 174.193  0.00  0.00    -0.218 OA
ATOM     25  C2  IDS d 502     -16.034  55.514 173.294  0.00  0.00     0.229 C 
ATOM     26  C1  IDS d 502     -15.856  56.001 171.859  0.00  0.00     0.301 C 
ATOM     27  O1  IDS d 502     -15.425  57.336 171.907  0.00  0.00    -0.187 OA
ATOM     28  O5  IDS d 502     -17.037  55.841 171.114  0.00  0.00    -0.316 OA
ATOM     29  C5  IDS d 502     -18.163  56.517 171.636  0.00  0.00     0.234 C 
BRANCH  25  30
ATOM     30  O2  IDS d 502     -16.215  54.124 173.262  0.00  0.00    -0.232 OA
BRANCH  30  31
ATOM     31  S   IDS d 502     -15.195  53.036 172.788  0.00  0.00     0.252 S 
ATOM     32  O3S IDS d 502     -13.923  53.712 172.764  0.00  0.00    -0.572 OA
ATOM     33  O2S IDS d 502     -15.651  52.608 171.486  0.00  0.00    -0.572 OA
ATOM     34  O1S IDS d 502     -15.225  51.974 173.755  0.00  0.00    -0.572 OA
ENDBRANCH  30  31
ENDBRANCH  25  30
BRANCH  29  35
ATOM     35  C6  IDS d 502     -19.322  56.473 170.650  0.00  0.00     0.216 C 
ATOM     36  O61 IDS d 502     -19.370  55.641 169.776  0.00  0.00    -0.646 OA
ATOM     37  O62 IDS d 502     -20.234  57.274 170.719  0.00  0.00    -0.646 OA
ENDBRANCH  29  35
ENDBRANCH  21  22
ENDBRANCH  13  21
BRANCH  15  38
ATOM     38  C6  SGN d 503     -20.530  51.274 171.268  0.00  0.00     0.198 C 
BRANCH  38  39
ATOM     39  O6  SGN d 503     -21.119  52.090 170.278  0.00  0.00    -0.235 OA
BRANCH  39  40
ATOM     40  S2  SGN d 503     -22.291  51.679 169.349  0.00  0.00     0.252 S 
ATOM     41  O4S SGN d 503     -22.653  50.336 169.653  0.00  0.00    -0.572 OA
ATOM     42  O5S SGN d 503     -23.386  52.611 169.605  0.00  0.00    -0.572 OA
ATOM     43  O6S SGN d 503     -21.735  51.750 168.055  0.00  0.00    -0.572 OA
ENDBRANCH  39  40
ENDBRANCH  38  39
ENDBRANCH  15  38
ENDBRANCH   8   9
ENDBRANCH   5   8
BRANCH   1  44
ATOM     44  O2  IDS d 504     -16.963  50.523 176.146  0.00  0.00    -0.233 OA
BRANCH  44  45
ATOM     45  S   IDS d 504     -16.822  51.654 177.181  0.00  0.00     0.252 S 
ATOM     46  O3S IDS d 504     -15.833  51.171 178.070  0.00  0.00    -0.572 OA
ATOM     47  O2S IDS d 504     -18.111  51.867 177.770  0.00  0.00    -0.572 OA
ATOM     48  O1S IDS d 504     -16.379  52.796 176.467  0.00  0.00    -0.572 OA
ENDBRANCH  44  45
ENDBRANCH   1  44
BRANCH   4  49
ATOM     49  C6  IDS d 504     -17.158  48.428 171.691  0.00  0.00     0.216 C 
ATOM     50  O62 IDS d 504     -16.333  49.167 171.150  0.00  0.00    -0.646 OA
ATOM     51  O61 IDS d 504     -17.472  47.397 171.112  0.00  0.00    -0.646 OA
ENDBRANCH   4  49
BRANCH   7  52
ATOM     52  O4  IDS d 504     -15.880  48.379 174.461  0.00  0.00    -0.326 OA
BRANCH  52  53
ATOM     53  C1  SGN d 505     -15.097  47.315 174.929  0.00  0.00     0.263 C 
ATOM     54  C2  SGN d 505     -13.785  47.804 175.512  0.00  0.00     0.207 C 
ATOM     55  C3  SGN d 505     -12.894  48.417 174.414  0.00  0.00     0.210 C 
ATOM     56  C4  SGN d 505     -12.707  47.296 173.350  0.00  0.00     0.180 C 
ATOM     57  O3  SGN d 505     -11.644  48.770 174.992  0.00  0.00    -0.218 OA
ATOM     58  C5  SGN d 505     -14.073  46.941 172.859  0.00  0.00     0.179 C 
ATOM     59  O5  SGN d 505     -14.838  46.408 173.895  0.00  0.00    -0.327 OA
BRANCH  54  60
ATOM     60  N   SGN d 505     -14.061  48.685 176.669  0.00  0.00    -0.162 NA
BRANCH  60  61
ATOM     61  S1  SGN d 505     -13.874  48.033 178.202  0.00  0.00     0.227 S 
ATOM     62  O3S SGN d 505     -13.146  46.823 178.050  0.00  0.00    -0.577 OA
ATOM     63  O1S SGN d 505     -13.180  49.012 179.012  0.00  0.00    -0.577 OA
ATOM     64  O2S SGN d 505     -15.218  47.784 178.667  0.00  0.00    -0.577 OA
ENDBRANCH  60  61
ENDBRANCH  54  60
BRANCH  56  65
ATOM     65  O4  SGN d 505     -11.969  47.662 172.203  0.00  0.00    -0.326 OA
BRANCH  65  66
ATOM     66  C1  IDS d 506     -10.627  47.360 172.026  0.00  0.00     0.269 C 
ATOM     67  C2  IDS d 506     -10.218  47.735 170.594  0.00  0.00     0.226 C 
ATOM     68  C3  IDS d 506      -8.847  47.140 170.170  0.00  0.00     0.219 C 
ATOM     69  O3  IDS d 506      -7.813  47.996 170.652  0.00  0.00    -0.218 OA
ATOM     70  C4  IDS d 506      -8.595  45.716 170.709  0.00  0.00     0.223 C 
ATOM     71  O4  IDS d 506      -9.264  44.820 169.852  0.00  0.00    -0.217 OA
ATOM     72  C5  IDS d 506      -9.137  45.571 172.135  0.00  0.00     0.237 C 
ATOM     73  O5  IDS d 506     -10.467  45.973 172.183  0.00  0.00    -0.318 OA
BRANCH  67  74
ATOM     74  O2  IDS d 506     -11.176  47.254 169.672  0.00  0.00    -0.233 OA
BRANCH  74  75
ATOM     75  S   IDS d 506     -12.091  48.089 168.678  0.00  0.00     0.252 S 
ATOM     76  O1S IDS d 506     -12.262  49.361 169.309  0.00  0.00    -0.572 OA
ATOM     77  O2S IDS d 506     -11.391  48.220 167.431  0.00  0.00    -0.572 OA
ATOM     78  O3S IDS d 506     -13.324  47.339 168.564  0.00  0.00    -0.572 OA
ENDBRANCH  74  75
ENDBRANCH  67  74
BRANCH  72  79
ATOM     79  C6  IDS d 506      -9.002  44.203 172.777  0.00  0.00     0.217 C 
ATOM     80  O61 IDS d 506     -10.003  43.565 173.075  0.00  0.00    -0.646 OA
ATOM     81  O62 IDS d 506      -7.915  43.711 173.026  0.00  0.00    -0.646 OA
ENDBRANCH  72  79
ENDBRANCH  65  66
ENDBRANCH  56  65
BRANCH  58  82
ATOM     82  C6  SGN d 505     -14.050  45.907 171.780  0.00  0.00     0.198 C 
BRANCH  82  83
ATOM     83  O6  SGN d 505     -15.202  45.158 171.971  0.00  0.00    -0.235 OA
BRANCH  83  84
ATOM     84  S2  SGN d 505     -15.564  43.840 171.303  0.00  0.00     0.252 S 
ATOM     85  O6S SGN d 505     -16.818  44.056 170.593  0.00  0.00    -0.572 OA
ATOM     86  O4S SGN d 505     -14.460  43.562 170.413  0.00  0.00    -0.572 OA
ATOM     87  O5S SGN d 505     -15.702  42.907 172.394  0.00  0.00    -0.572 OA
ENDBRANCH  83  84
ENDBRANCH  82  83
ENDBRANCH  58  82
ENDBRANCH  52  53
ENDBRANCH   7  52
TORSDOF 27

ENDMDL
MODEL 93
REMARK VINA RESULT:       5.9      4.444      7.655
REMARK  27 active torsions:
REMARK  status: ('A' for Active; 'I' for Inactive)
REMARK    1  A    between atoms: C2_1  and  O2_78 
REMARK    2  A    between atoms: C1_3  and  O4_50 
REMARK    3  A    between atoms: O4_5  and  C4_58 
REMARK    4  A    between atoms: O4_5  and  C1_27 
REMARK    5  A    between atoms: C2_6  and  N_39 
REMARK    6  A    between atoms: S1_9  and  N_39 
REMARK    7  A    between atoms: C6_10  and  C5_52 
REMARK    8  A    between atoms: C2_12  and  N_73 
REMARK    9  A    between atoms: C2_19  and  O2_24 
REMARK   10  A    between atoms: C2_21  and  O2_44 
REMARK   11  A    between atoms: S2_23  and  O6_65 
REMARK   12  A    between atoms: O2_24  and  S_54 
REMARK   13  A    between atoms: C1_28  and  O4_60 
REMARK   14  A    between atoms: C5_29  and  C6_38 
REMARK   15  A    between atoms: C5_30  and  C6_33 
REMARK   16  A    between atoms: S1_34  and  N_73 
REMARK   17  A    between atoms: C5_41  and  C6_46 
REMARK   18  A    between atoms: S_43  and  O2_44 
REMARK   19  A    between atoms: C6_46  and  O6_72 
REMARK   20  A    between atoms: O4_50  and  C4_71 
REMARK   21  A    between atoms: C1_56  and  O4_64 
REMARK   22  A    between atoms: O4_60  and  C4_83 
REMARK   23  A    between atoms: C4_61  and  O4_64 
REMARK   24  A    between atoms: S2_63  and  O6_72 
REMARK   25  A    between atoms: O6_65  and  C6_67 
REMARK   26  A    between atoms: C6_67  and  C5_75 
REMARK   27  A    between atoms: S_76  and  O2_78 
ROOT
ATOM      1  C2  IDS d 504     -17.771  51.386 175.653  0.00  0.00     0.226 C 
ATOM      2  O3  IDS d 504     -19.187  49.402 175.383  0.00  0.00    -0.218 OA
ATOM      3  O5  IDS d 504     -17.292  51.488 173.267  0.00  0.00    -0.318 OA
ATOM      4  C5  IDS d 504     -17.554  50.116 173.077  0.00  0.00     0.234 C 
ATOM      5  C1  IDS d 504     -18.033  52.087 174.335  0.00  0.00     0.269 C 
ATOM      6  C3  IDS d 504     -17.834  49.816 175.523  0.00  0.00     0.216 C 
ATOM      7  C4  IDS d 504     -17.086  49.321 174.294  0.00  0.00     0.189 C 
ENDROOT
BRANCH   5   8
ATOM      8  O4  SGN d 503     -19.411  52.082 174.101  0.00  0.00    -0.326 OA
BRANCH   8   9
ATOM      9  C4  SGN d 503     -19.938  53.331 173.793  0.00  0.00     0.180 C 
ATOM     10  C3  SGN d 503     -19.335  54.359 174.747  0.00  0.00     0.210 C 
ATOM     11  C2  SGN d 503     -19.737  55.744 174.273  0.00  0.00     0.207 C 
ATOM     12  O3  SGN d 503     -19.859  54.122 176.039  0.00  0.00    -0.218 OA
ATOM     13  C1  SGN d 503     -19.378  55.963 172.796  0.00  0.00     0.263 C 
ATOM     14  O5  SGN d 503     -19.985  54.967 172.012  0.00  0.00    -0.327 OA
ATOM     15  C5  SGN d 503     -19.571  53.677 172.339  0.00  0.00     0.179 C 
BRANCH  11  16
ATOM     16  N   SGN d 503     -19.143  56.780 175.099  0.00  0.00    -0.162 NA
BRANCH  16  17
ATOM     17  S1  SGN d 503     -20.140  57.896 175.740  0.00  0.00     0.227 S 
ATOM     18  O1S SGN d 503     -20.999  57.186 176.669  0.00  0.00    -0.577 OA
ATOM     19  O2S SGN d 503     -19.323  58.906 176.411  0.00  0.00    -0.577 OA
ATOM     20  O3S SGN d 503     -20.860  58.395 174.591  0.00  0.00    -0.577 OA
ENDBRANCH  16  17
ENDBRANCH  11  16
BRANCH  13  21
ATOM     21  O4  IDS d 502     -17.989  55.982 172.615  0.00  0.00    -0.326 OA
BRANCH  21  22
ATOM     22  C4  IDS d 502     -17.454  57.241 172.297  0.00  0.00     0.189 C 
ATOM     23  C3  IDS d 502     -16.146  57.460 173.081  0.00  0.00     0.216 C 
ATOM     24  O3  IDS d 502     -15.726  58.800 172.909  0.00  0.00    -0.218 OA
ATOM     25  C2  IDS d 502     -15.034  56.544 172.560  0.00  0.00     0.229 C 
ATOM     26  C1  IDS d 502     -14.927  56.588 171.039  0.00  0.00     0.301 C 
ATOM     27  O1  IDS d 502     -14.353  57.817 170.682  0.00  0.00    -0.187 OA
ATOM     28  O5  IDS d 502     -16.178  56.379 170.432  0.00  0.00    -0.316 OA
ATOM     29  C5  IDS d 502     -17.177  57.310 170.797  0.00  0.00     0.234 C 
BRANCH  25  30
ATOM     30  O2  IDS d 502     -15.365  55.233 172.935  0.00  0.00    -0.232 OA
BRANCH  30  31
ATOM     31  S   IDS d 502     -14.421  53.987 172.994  0.00  0.00     0.252 S 
ATOM     32  O3S IDS d 502     -14.690  53.383 174.273  0.00  0.00    -0.572 OA
ATOM     33  O2S IDS d 502     -13.078  54.503 172.863  0.00  0.00    -0.572 OA
ATOM     34  O1S IDS d 502     -14.784  53.126 171.903  0.00  0.00    -0.572 OA
ENDBRANCH  30  31
ENDBRANCH  25  30
BRANCH  29  35
ATOM     35  C6  IDS d 502     -18.413  57.142 169.925  0.00  0.00     0.216 C 
ATOM     36  O61 IDS d 502     -18.568  56.160 169.240  0.00  0.00    -0.646 OA
ATOM     37  O62 IDS d 502     -19.282  57.993 169.900  0.00  0.00    -0.646 OA
ENDBRANCH  29  35
ENDBRANCH  21  22
ENDBRANCH  13  21
BRANCH  15  38
ATOM     38  C6  SGN d 503     -20.222  52.796 171.307  0.00  0.00     0.198 C 
BRANCH  38  39
ATOM     39  O6  SGN d 503     -21.553  53.238 171.150  0.00  0.00    -0.235 OA
BRANCH  39  40
ATOM     40  S2  SGN d 503     -22.260  53.511 169.795  0.00  0.00     0.252 S 
ATOM     41  O4S SGN d 503     -23.037  54.696 169.928  0.00  0.00    -0.572 OA
ATOM     42  O5S SGN d 503     -21.213  53.654 168.788  0.00  0.00    -0.572 OA
ATOM     43  O6S SGN d 503     -23.104  52.393 169.627  0.00  0.00    -0.572 OA
ENDBRANCH  39  40
ENDBRANCH  38  39
ENDBRANCH  15  38
ENDBRANCH   8   9
ENDBRANCH   5   8
BRANCH   1  44
ATOM     44  O2  IDS d 504     -16.492  51.796 176.132  0.00  0.00    -0.233 OA
BRANCH  44  45
ATOM     45  S   IDS d 504     -16.212  52.736 177.319  0.00  0.00     0.252 S 
ATOM     46  O3S IDS d 504     -16.798  53.961 176.920  0.00  0.00    -0.572 OA
ATOM     47  O2S IDS d 504     -14.792  52.782 177.510  0.00  0.00    -0.572 OA
ATOM     48  O1S IDS d 504     -16.872  52.174 178.439  0.00  0.00    -0.572 OA
ENDBRANCH  44  45
ENDBRANCH   1  44
BRANCH   4  49
ATOM     49  C6  IDS d 504     -16.985  49.642 171.729  0.00  0.00     0.216 C 
ATOM     50  O62 IDS d 504     -17.534  48.745 171.086  0.00  0.00    -0.646 OA
ATOM     51  O61 IDS d 504     -15.960  50.132 171.271  0.00  0.00    -0.646 OA
ENDBRANCH   4  49
BRANCH   7  52
ATOM     52  O4  IDS d 504     -15.691  49.501 174.489  0.00  0.00    -0.326 OA
BRANCH  52  53
ATOM     53  C1  SGN d 505     -15.049  48.389 175.050  0.00  0.00     0.263 C 
ATOM     54  C2  SGN d 505     -13.723  48.769 175.680  0.00  0.00     0.207 C 
ATOM     55  C3  SGN d 505     -12.719  49.227 174.604  0.00  0.00     0.210 C 
ATOM     56  C4  SGN d 505     -12.599  48.038 173.607  0.00  0.00     0.180 C 
ATOM     57  O3  SGN d 505     -11.469  49.480 175.232  0.00  0.00    -0.218 OA
ATOM     58  C5  SGN d 505     -13.969  47.800 173.059  0.00  0.00     0.179 C 
ATOM     59  O5  SGN d 505     -14.837  47.405 174.077  0.00  0.00    -0.327 OA
BRANCH  54  60
ATOM     60  N   SGN d 505     -13.962  49.736 176.776  0.00  0.00    -0.162 NA
BRANCH  60  61
ATOM     61  S1  SGN d 505     -14.079  49.126 178.333  0.00  0.00     0.227 S 
ATOM     62  O3S SGN d 505     -12.766  48.774 178.740  0.00  0.00    -0.577 OA
ATOM     63  O1S SGN d 505     -14.672  50.155 179.162  0.00  0.00    -0.577 OA
ATOM     64  O2S SGN d 505     -14.924  47.961 178.213  0.00  0.00    -0.577 OA
ENDBRANCH  60  61
ENDBRANCH  54  60
BRANCH  56  65
ATOM     65  O4  SGN d 505     -11.771  48.264 172.486  0.00  0.00    -0.326 OA
BRANCH  65  66
ATOM     66  C1  IDS d 506     -10.546  47.641 172.300  0.00  0.00     0.269 C 
ATOM     67  C2  IDS d 506     -10.057  47.922 170.872  0.00  0.00     0.226 C 
ATOM     68  C3  IDS d 506      -8.877  47.010 170.435  0.00  0.00     0.219 C 
ATOM     69  O3  IDS d 506      -7.663  47.576 170.923  0.00  0.00    -0.218 OA
ATOM     70  C4  IDS d 506      -8.987  45.561 170.954  0.00  0.00     0.223 C 
ATOM     71  O4  IDS d 506      -9.858  44.872 170.088  0.00  0.00    -0.217 OA
ATOM     72  C5  IDS d 506      -9.547  45.536 172.379  0.00  0.00     0.237 C 
ATOM     73  O5  IDS d 506     -10.735  46.255 172.438  0.00  0.00    -0.318 OA
BRANCH  67  74
ATOM     74  O2  IDS d 506     -11.105  47.706 169.947  0.00  0.00    -0.233 OA
BRANCH  74  75
ATOM     75  S   IDS d 506     -11.626  48.679 168.805  0.00  0.00     0.252 S 
ATOM     76  O1S IDS d 506     -12.098  47.815 167.767  0.00  0.00    -0.572 OA
ATOM     77  O2S IDS d 506     -12.696  49.469 169.345  0.00  0.00    -0.572 OA
ATOM     78  O3S IDS d 506     -10.477  49.466 168.413  0.00  0.00    -0.572 OA
ENDBRANCH  74  75
ENDBRANCH  67  74
BRANCH  72  79
ATOM     79  C6  IDS d 506      -9.756  44.168 173.003  0.00  0.00     0.217 C 
ATOM     80  O61 IDS d 506     -10.841  43.612 172.909  0.00  0.00    -0.646 OA
ATOM     81  O62 IDS d 506      -8.872  43.597 173.618  0.00  0.00    -0.646 OA
ENDBRANCH  72  79
ENDBRANCH  65  66
ENDBRANCH  56  65
BRANCH  58  82
ATOM     82  C6  SGN d 505     -14.003  46.713 172.035  0.00  0.00     0.198 C 
BRANCH  82  83
ATOM     83  O6  SGN d 505     -14.573  47.291 170.911  0.00  0.00    -0.235 OA
BRANCH  83  84
ATOM     84  S2  SGN d 505     -15.057  46.582 169.654  0.00  0.00     0.252 S 
ATOM     85  O6S SGN d 505     -16.226  45.800 170.033  0.00  0.00    -0.572 OA
ATOM     86  O4S SGN d 505     -15.373  47.647 168.730  0.00  0.00    -0.572 OA
ATOM     87  O5S SGN d 505     -13.945  45.755 169.255  0.00  0.00    -0.572 OA
ENDBRANCH  83  84
ENDBRANCH  82  83
ENDBRANCH  58  82
ENDBRANCH  52  53
ENDBRANCH   7  52
TORSDOF 27

ENDMDL
MODEL 94
REMARK VINA RESULT:       6.0      3.804     10.444
REMARK  27 active torsions:
REMARK  status: ('A' for Active; 'I' for Inactive)
REMARK    1  A    between atoms: C2_1  and  O2_78 
REMARK    2  A    between atoms: C1_3  and  O4_50 
REMARK    3  A    between atoms: O4_5  and  C4_58 
REMARK    4  A    between atoms: O4_5  and  C1_27 
REMARK    5  A    between atoms: C2_6  and  N_39 
REMARK    6  A    between atoms: S1_9  and  N_39 
REMARK    7  A    between atoms: C6_10  and  C5_52 
REMARK    8  A    between atoms: C2_12  and  N_73 
REMARK    9  A    between atoms: C2_19  and  O2_24 
REMARK   10  A    between atoms: C2_21  and  O2_44 
REMARK   11  A    between atoms: S2_23  and  O6_65 
REMARK   12  A    between atoms: O2_24  and  S_54 
REMARK   13  A    between atoms: C1_28  and  O4_60 
REMARK   14  A    between atoms: C5_29  and  C6_38 
REMARK   15  A    between atoms: C5_30  and  C6_33 
REMARK   16  A    between atoms: S1_34  and  N_73 
REMARK   17  A    between atoms: C5_41  and  C6_46 
REMARK   18  A    between atoms: S_43  and  O2_44 
REMARK   19  A    between atoms: C6_46  and  O6_72 
REMARK   20  A    between atoms: O4_50  and  C4_71 
REMARK   21  A    between atoms: C1_56  and  O4_64 
REMARK   22  A    between atoms: O4_60  and  C4_83 
REMARK   23  A    between atoms: C4_61  and  O4_64 
REMARK   24  A    between atoms: S2_63  and  O6_72 
REMARK   25  A    between atoms: O6_65  and  C6_67 
REMARK   26  A    between atoms: C6_67  and  C5_75 
REMARK   27  A    between atoms: S_76  and  O2_78 
ROOT
ATOM      1  C2  IDS d 504     -17.695  47.099 173.386  0.00  0.00     0.226 C 
ATOM      2  O3  IDS d 504     -16.415  46.804 175.457  0.00  0.00    -0.218 OA
ATOM      3  O5  IDS d 504     -16.403  49.066 172.753  0.00  0.00    -0.318 OA
ATOM      4  C5  IDS d 504     -16.036  49.348 174.084  0.00  0.00     0.234 C 
ATOM      5  C1  IDS d 504     -16.623  47.677 172.484  0.00  0.00     0.269 C 
ATOM      6  C3  IDS d 504     -17.506  47.521 174.894  0.00  0.00     0.216 C 
ATOM      7  C4  IDS d 504     -17.185  49.002 175.029  0.00  0.00     0.189 C 
ENDROOT
BRANCH   5   8
ATOM      8  O4  SGN d 503     -15.462  46.912 172.636  0.00  0.00    -0.326 OA
BRANCH   8   9
ATOM      9  C4  SGN d 503     -14.705  46.795 171.476  0.00  0.00     0.180 C 
ATOM     10  C3  SGN d 503     -13.357  47.475 171.707  0.00  0.00     0.210 C 
ATOM     11  C2  SGN d 503     -12.454  47.159 170.529  0.00  0.00     0.207 C 
ATOM     12  O3  SGN d 503     -13.576  48.871 171.785  0.00  0.00    -0.218 OA
ATOM     13  C1  SGN d 503     -12.365  45.647 170.275  0.00  0.00     0.263 C 
ATOM     14  O5  SGN d 503     -13.656  45.128 170.074  0.00  0.00    -0.327 OA
ATOM     15  C5  SGN d 503     -14.499  45.302 171.169  0.00  0.00     0.179 C 
BRANCH  11  16
ATOM     16  N   SGN d 503     -11.128  47.723 170.712  0.00  0.00    -0.162 NA
BRANCH  16  17
ATOM     17  S1  SGN d 503     -10.429  48.435 169.426  0.00  0.00     0.227 S 
ATOM     18  O1S SGN d 503      -9.616  47.416 168.791  0.00  0.00    -0.577 OA
ATOM     19  O2S SGN d 503     -11.488  48.922 168.543  0.00  0.00    -0.577 OA
ATOM     20  O3S SGN d 503      -9.635  49.486 170.021  0.00  0.00    -0.577 OA
ENDBRANCH  16  17
ENDBRANCH  11  16
BRANCH  13  21
ATOM     21  O4  IDS d 502     -11.710  44.999 171.331  0.00  0.00    -0.326 OA
BRANCH  21  22
ATOM     22  C4  IDS d 502     -10.386  44.619 171.057  0.00  0.00     0.189 C 
ATOM     23  C3  IDS d 502      -9.431  45.329 172.037  0.00  0.00     0.216 C 
ATOM     24  O3  IDS d 502      -8.098  45.099 171.626  0.00  0.00    -0.218 OA
ATOM     25  C2  IDS d 502      -9.593  44.777 173.456  0.00  0.00     0.229 C 
ATOM     26  C1  IDS d 502      -9.575  43.252 173.479  0.00  0.00     0.301 C 
ATOM     27  O1  IDS d 502      -8.256  42.833 173.253  0.00  0.00    -0.187 OA
ATOM     28  O5  IDS d 502     -10.480  42.716 172.546  0.00  0.00    -0.316 OA
ATOM     29  C5  IDS d 502     -10.251  43.105 171.207  0.00  0.00     0.234 C 
BRANCH  25  30
ATOM     30  O2  IDS d 502     -10.843  45.205 173.929  0.00  0.00    -0.232 OA
BRANCH  30  31
ATOM     31  S   IDS d 502     -11.143  46.050 175.211  0.00  0.00     0.252 S 
ATOM     32  O3S IDS d 502     -11.060  45.110 176.299  0.00  0.00    -0.572 OA
ATOM     33  O2S IDS d 502     -12.464  46.603 175.018  0.00  0.00    -0.572 OA
ATOM     34  O1S IDS d 502     -10.132  47.067 175.297  0.00  0.00    -0.572 OA
ENDBRANCH  30  31
ENDBRANCH  25  30
BRANCH  29  35
ATOM     35  C6  IDS d 502     -11.127  42.303 170.255  0.00  0.00     0.216 C 
ATOM     36  O61 IDS d 502     -11.055  42.453 169.060  0.00  0.00    -0.646 OA
ATOM     37  O62 IDS d 502     -11.922  41.485 170.676  0.00  0.00    -0.646 OA
ENDBRANCH  29  35
ENDBRANCH  21  22
ENDBRANCH  13  21
BRANCH  15  38
ATOM     38  C6  SGN d 503     -15.757  44.563 170.801  0.00  0.00     0.198 C 
BRANCH  38  39
ATOM     39  O6  SGN d 503     -16.058  43.681 171.860  0.00  0.00    -0.235 OA
BRANCH  39  40
ATOM     40  S2  SGN d 503     -15.443  42.271 172.063  0.00  0.00     0.252 S 
ATOM     41  O4S SGN d 503     -15.205  41.698 170.782  0.00  0.00    -0.572 OA
ATOM     42  O5S SGN d 503     -14.208  42.448 172.820  0.00  0.00    -0.572 OA
ATOM     43  O6S SGN d 503     -16.459  41.556 172.733  0.00  0.00    -0.572 OA
ENDBRANCH  39  40
ENDBRANCH  38  39
ENDBRANCH  15  38
ENDBRANCH   8   9
ENDBRANCH   5   8
BRANCH   1  44
ATOM     44  O2  IDS d 504     -18.966  47.530 172.903  0.00  0.00    -0.233 OA
BRANCH  44  45
ATOM     45  S   IDS d 504     -20.100  46.635 172.371  0.00  0.00     0.252 S 
ATOM     46  O3S IDS d 504     -20.425  45.815 173.478  0.00  0.00    -0.572 OA
ATOM     47  O2S IDS d 504     -19.597  45.932 171.227  0.00  0.00    -0.572 OA
ATOM     48  O1S IDS d 504     -21.166  47.502 172.024  0.00  0.00    -0.572 OA
ENDBRANCH  44  45
ENDBRANCH   1  44
BRANCH   4  49
ATOM     49  C6  IDS d 504     -15.505  50.786 174.202  0.00  0.00     0.216 C 
ATOM     50  O62 IDS d 504     -15.957  51.692 173.497  0.00  0.00    -0.646 OA
ATOM     51  O61 IDS d 504     -14.608  51.064 174.987  0.00  0.00    -0.646 OA
ENDBRANCH   4  49
BRANCH   7  52
ATOM     52  O4  IDS d 504     -18.337  49.764 174.697  0.00  0.00    -0.326 OA
BRANCH  52  53
ATOM     53  C1  SGN d 505     -19.200  49.988 175.779  0.00  0.00     0.263 C 
ATOM     54  C2  SGN d 505     -20.371  50.867 175.386  0.00  0.00     0.207 C 
ATOM     55  C3  SGN d 505     -19.893  52.291 175.039  0.00  0.00     0.210 C 
ATOM     56  C4  SGN d 505     -19.147  52.803 176.305  0.00  0.00     0.180 C 
ATOM     57  O3  SGN d 505     -21.033  53.096 174.772  0.00  0.00    -0.218 OA
ATOM     58  C5  SGN d 505     -18.018  51.855 176.549  0.00  0.00     0.179 C 
ATOM     59  O5  SGN d 505     -18.507  50.582 176.841  0.00  0.00    -0.327 OA
BRANCH  54  60
ATOM     60  N   SGN d 505     -21.159  50.188 174.331  0.00  0.00    -0.162 NA
BRANCH  60  61
ATOM     61  S1  SGN d 505     -22.578  49.427 174.794  0.00  0.00     0.227 S 
ATOM     62  O3S SGN d 505     -23.429  49.411 173.659  0.00  0.00    -0.577 OA
ATOM     63  O1S SGN d 505     -22.231  48.100 175.260  0.00  0.00    -0.577 OA
ATOM     64  O2S SGN d 505     -23.119  50.256 175.846  0.00  0.00    -0.577 OA
ENDBRANCH  60  61
ENDBRANCH  54  60
BRANCH  56  65
ATOM     65  O4  SGN d 505     -18.558  54.082 176.189  0.00  0.00    -0.326 OA
BRANCH  65  66
ATOM     66  C1  IDS d 506     -19.149  55.140 175.516  0.00  0.00     0.269 C 
ATOM     67  C2  IDS d 506     -18.048  56.075 174.995  0.00  0.00     0.226 C 
ATOM     68  C3  IDS d 506     -18.584  57.455 174.525  0.00  0.00     0.219 C 
ATOM     69  O3  IDS d 506     -19.057  57.325 173.187  0.00  0.00    -0.218 OA
ATOM     70  C4  IDS d 506     -19.730  58.007 175.400  0.00  0.00     0.223 C 
ATOM     71  O4  IDS d 506     -19.143  58.605 176.531  0.00  0.00    -0.217 OA
ATOM     72  C5  IDS d 506     -20.668  56.878 175.839  0.00  0.00     0.237 C 
ATOM     73  O5  IDS d 506     -19.939  55.855 176.432  0.00  0.00    -0.318 OA
BRANCH  67  74
ATOM     74  O2  IDS d 506     -17.102  56.329 176.016  0.00  0.00    -0.233 OA
BRANCH  74  75
ATOM     75  S   IDS d 506     -15.530  56.100 175.981  0.00  0.00     0.252 S 
ATOM     76  O1S IDS d 506     -15.348  54.885 175.248  0.00  0.00    -0.572 OA
ATOM     77  O2S IDS d 506     -14.933  57.211 175.295  0.00  0.00    -0.572 OA
ATOM     78  O3S IDS d 506     -15.123  55.997 177.365  0.00  0.00    -0.572 OA
ENDBRANCH  74  75
ENDBRANCH  67  74
BRANCH  72  79
ATOM     79  C6  IDS d 506     -21.820  57.267 176.748  0.00  0.00     0.217 C 
ATOM     80  O61 IDS d 506     -21.959  56.715 177.830  0.00  0.00    -0.646 OA
ATOM     81  O62 IDS d 506     -22.637  58.114 176.429  0.00  0.00    -0.646 OA
ENDBRANCH  72  79
ENDBRANCH  65  66
ENDBRANCH  56  65
BRANCH  58  82
ATOM     82  C6  SGN d 505     -17.167  52.253 177.711  0.00  0.00     0.198 C 
BRANCH  82  83
ATOM     83  O6  SGN d 505     -16.184  51.279 177.793  0.00  0.00    -0.235 OA
BRANCH  83  84
ATOM     84  S2  SGN d 505     -14.893  51.337 178.595  0.00  0.00     0.252 S 
ATOM     85  O6S SGN d 505     -14.236  50.047 178.436  0.00  0.00    -0.572 OA
ATOM     86  O4S SGN d 505     -14.142  52.421 178.003  0.00  0.00    -0.572 OA
ATOM     87  O5S SGN d 505     -15.319  51.576 179.951  0.00  0.00    -0.572 OA
ENDBRANCH  83  84
ENDBRANCH  82  83
ENDBRANCH  58  82
ENDBRANCH  52  53
ENDBRANCH   7  52
TORSDOF 27

ENDMDL
MODEL 95
REMARK VINA RESULT:       6.0      2.703     10.308
REMARK  27 active torsions:
REMARK  status: ('A' for Active; 'I' for Inactive)
REMARK    1  A    between atoms: C2_1  and  O2_78 
REMARK    2  A    between atoms: C1_3  and  O4_50 
REMARK    3  A    between atoms: O4_5  and  C4_58 
REMARK    4  A    between atoms: O4_5  and  C1_27 
REMARK    5  A    between atoms: C2_6  and  N_39 
REMARK    6  A    between atoms: S1_9  and  N_39 
REMARK    7  A    between atoms: C6_10  and  C5_52 
REMARK    8  A    between atoms: C2_12  and  N_73 
REMARK    9  A    between atoms: C2_19  and  O2_24 
REMARK   10  A    between atoms: C2_21  and  O2_44 
REMARK   11  A    between atoms: S2_23  and  O6_65 
REMARK   12  A    between atoms: O2_24  and  S_54 
REMARK   13  A    between atoms: C1_28  and  O4_60 
REMARK   14  A    between atoms: C5_29  and  C6_38 
REMARK   15  A    between atoms: C5_30  and  C6_33 
REMARK   16  A    between atoms: S1_34  and  N_73 
REMARK   17  A    between atoms: C5_41  and  C6_46 
REMARK   18  A    between atoms: S_43  and  O2_44 
REMARK   19  A    between atoms: C6_46  and  O6_72 
REMARK   20  A    between atoms: O4_50  and  C4_71 
REMARK   21  A    between atoms: C1_56  and  O4_64 
REMARK   22  A    between atoms: O4_60  and  C4_83 
REMARK   23  A    between atoms: C4_61  and  O4_64 
REMARK   24  A    between atoms: S2_63  and  O6_72 
REMARK   25  A    between atoms: O6_65  and  C6_67 
REMARK   26  A    between atoms: C6_67  and  C5_75 
REMARK   27  A    between atoms: S_76  and  O2_78 
ROOT
ATOM      1  C2  IDS d 504     -12.650  46.296 170.846  0.00  0.00     0.226 C 
ATOM      2  O3  IDS d 504     -13.216  43.989 171.454  0.00  0.00    -0.218 OA
ATOM      3  O5  IDS d 504     -11.599  46.709 173.005  0.00  0.00    -0.318 OA
ATOM      4  C5  IDS d 504     -12.342  45.698 173.647  0.00  0.00     0.234 C 
ATOM      5  C1  IDS d 504     -11.356  46.469 171.615  0.00  0.00     0.269 C 
ATOM      6  C3  IDS d 504     -13.662  45.333 171.579  0.00  0.00     0.216 C 
ATOM      7  C4  IDS d 504     -13.753  45.638 173.066  0.00  0.00     0.189 C 
ENDROOT
BRANCH   5   8
ATOM      8  O4  SGN d 503     -10.561  45.338 171.398  0.00  0.00    -0.326 OA
BRANCH   8   9
ATOM      9  C4  SGN d 503      -9.238  45.628 171.084  0.00  0.00     0.180 C 
ATOM     10  C3  SGN d 503      -9.171  47.049 170.531  0.00  0.00     0.210 C 
ATOM     11  C2  SGN d 503      -7.711  47.441 170.396  0.00  0.00     0.207 C 
ATOM     12  O3  SGN d 503      -9.792  47.057 169.259  0.00  0.00    -0.218 OA
ATOM     13  C1  SGN d 503      -6.947  47.237 171.712  0.00  0.00     0.263 C 
ATOM     14  O5  SGN d 503      -7.073  45.900 172.126  0.00  0.00    -0.327 OA
ATOM     15  C5  SGN d 503      -8.391  45.516 172.363  0.00  0.00     0.179 C 
BRANCH  11  16
ATOM     16  N   SGN d 503      -7.572  48.811 169.934  0.00  0.00    -0.162 NA
BRANCH  16  17
ATOM     17  S1  SGN d 503      -6.293  49.161 168.990  0.00  0.00     0.227 S 
ATOM     18  O1S SGN d 503      -6.779  50.071 167.971  0.00  0.00    -0.577 OA
ATOM     19  O2S SGN d 503      -5.262  49.773 169.826  0.00  0.00    -0.577 OA
ATOM     20  O3S SGN d 503      -5.919  47.873 168.449  0.00  0.00    -0.577 OA
ENDBRANCH  16  17
ENDBRANCH  11  16
BRANCH  13  21
ATOM     21  O4  IDS d 502      -7.401  48.124 172.698  0.00  0.00    -0.326 OA
BRANCH  21  22
ATOM     22  C4  IDS d 502      -6.417  48.985 173.213  0.00  0.00     0.189 C 
ATOM     23  C3  IDS d 502      -6.918  50.440 173.146  0.00  0.00     0.216 C 
ATOM     24  O3  IDS d 502      -5.851  51.308 173.475  0.00  0.00    -0.218 OA
ATOM     25  C2  IDS d 502      -8.050  50.677 174.149  0.00  0.00     0.229 C 
ATOM     26  C1  IDS d 502      -7.703  50.144 175.535  0.00  0.00     0.301 C 
ATOM     27  O1  IDS d 502      -6.752  51.006 176.103  0.00  0.00    -0.187 OA
ATOM     28  O5  IDS d 502      -7.257  48.813 175.474  0.00  0.00    -0.316 OA
ATOM     29  C5  IDS d 502      -6.118  48.605 174.661  0.00  0.00     0.234 C 
BRANCH  25  30
ATOM     30  O2  IDS d 502      -9.173  49.977 173.683  0.00  0.00    -0.232 OA
BRANCH  30  31
ATOM     31  S   IDS d 502     -10.653  50.104 174.175  0.00  0.00     0.252 S 
ATOM     32  O3S IDS d 502     -10.914  51.521 174.192  0.00  0.00    -0.572 OA
ATOM     33  O2S IDS d 502     -10.688  49.490 175.481  0.00  0.00    -0.572 OA
ATOM     34  O1S IDS d 502     -11.478  49.414 173.224  0.00  0.00    -0.572 OA
ENDBRANCH  30  31
ENDBRANCH  25  30
BRANCH  29  35
ATOM     35  C6  IDS d 502      -5.580  47.193 174.838  0.00  0.00     0.216 C 
ATOM     36  O61 IDS d 502      -4.481  46.887 174.444  0.00  0.00    -0.646 OA
ATOM     37  O62 IDS d 502      -6.244  46.334 175.387  0.00  0.00    -0.646 OA
ENDBRANCH  29  35
ENDBRANCH  21  22
ENDBRANCH  13  21
BRANCH  15  38
ATOM     38  C6  SGN d 503      -8.286  44.122 172.920  0.00  0.00     0.198 C 
BRANCH  38  39
ATOM     39  O6  SGN d 503      -9.045  44.081 174.109  0.00  0.00    -0.235 OA
BRANCH  39  40
ATOM     40  S2  SGN d 503      -8.697  43.254 175.375  0.00  0.00     0.252 S 
ATOM     41  O4S SGN d 503      -9.603  42.159 175.457  0.00  0.00    -0.572 OA
ATOM     42  O5S SGN d 503      -7.315  42.809 175.228  0.00  0.00    -0.572 OA
ATOM     43  O6S SGN d 503      -8.927  44.154 176.437  0.00  0.00    -0.572 OA
ENDBRANCH  39  40
ENDBRANCH  38  39
ENDBRANCH  15  38
ENDBRANCH   8   9
ENDBRANCH   5   8
BRANCH   1  44
ATOM     44  O2  IDS d 504     -13.234  47.583 170.658  0.00  0.00    -0.233 OA
BRANCH  44  45
ATOM     45  S   IDS d 504     -13.444  48.311 169.317  0.00  0.00     0.252 S 
ATOM     46  O3S IDS d 504     -14.700  48.944 169.474  0.00  0.00    -0.572 OA
ATOM     47  O2S IDS d 504     -13.391  47.327 168.277  0.00  0.00    -0.572 OA
ATOM     48  O1S IDS d 504     -12.389  49.250 169.203  0.00  0.00    -0.572 OA
ENDBRANCH  44  45
ENDBRANCH   1  44
BRANCH   4  49
ATOM     49  C6  IDS d 504     -12.271  45.867 175.174  0.00  0.00     0.216 C 
ATOM     50  O62 IDS d 504     -11.288  46.378 175.714  0.00  0.00    -0.646 OA
ATOM     51  O61 IDS d 504     -13.184  45.481 175.893  0.00  0.00    -0.646 OA
ENDBRANCH   4  49
BRANCH   7  52
ATOM     52  O4  IDS d 504     -14.412  46.882 173.252  0.00  0.00    -0.326 OA
BRANCH  52  53
ATOM     53  C1  SGN d 505     -15.744  46.761 173.670  0.00  0.00     0.263 C 
ATOM     54  C2  SGN d 505     -16.694  47.457 172.715  0.00  0.00     0.207 C 
ATOM     55  C3  SGN d 505     -16.473  48.982 172.739  0.00  0.00     0.210 C 
ATOM     56  C4  SGN d 505     -16.678  49.413 174.220  0.00  0.00     0.180 C 
ATOM     57  O3  SGN d 505     -17.448  49.592 171.902  0.00  0.00    -0.218 OA
ATOM     58  C5  SGN d 505     -15.665  48.667 175.026  0.00  0.00     0.179 C 
ATOM     59  O5  SGN d 505     -15.903  47.294 174.955  0.00  0.00    -0.327 OA
BRANCH  54  60
ATOM     60  N   SGN d 505     -16.596  46.823 171.379  0.00  0.00    -0.162 NA
BRANCH  60  61
ATOM     61  S1  SGN d 505     -18.023  46.338 170.646  0.00  0.00     0.227 S 
ATOM     62  O3S SGN d 505     -17.791  45.047 170.102  0.00  0.00    -0.577 OA
ATOM     63  O1S SGN d 505     -19.060  46.348 171.657  0.00  0.00    -0.577 OA
ATOM     64  O2S SGN d 505     -18.257  47.313 169.607  0.00  0.00    -0.577 OA
ENDBRANCH  60  61
ENDBRANCH  54  60
BRANCH  56  65
ATOM     65  O4  SGN d 505     -16.455  50.781 174.493  0.00  0.00    -0.326 OA
BRANCH  65  66
ATOM     66  C1  IDS d 506     -17.385  51.776 174.232  0.00  0.00     0.269 C 
ATOM     67  C2  IDS d 506     -16.765  53.138 174.575  0.00  0.00     0.226 C 
ATOM     68  C3  IDS d 506     -17.807  54.288 174.648  0.00  0.00     0.219 C 
ATOM     69  O3  IDS d 506     -18.043  54.768 173.327  0.00  0.00    -0.218 OA
ATOM     70  C4  IDS d 506     -19.157  53.864 175.265  0.00  0.00     0.223 C 
ATOM     71  O4  IDS d 506     -19.005  53.895 176.665  0.00  0.00    -0.217 OA
ATOM     72  C5  IDS d 506     -19.538  52.449 174.817  0.00  0.00     0.237 C 
ATOM     73  O5  IDS d 506     -18.493  51.570 175.071  0.00  0.00    -0.318 OA
BRANCH  67  74
ATOM     74  O2  IDS d 506     -16.131  53.079 175.838  0.00  0.00    -0.233 OA
BRANCH  74  75
ATOM     75  S   IDS d 506     -14.715  53.664 176.257  0.00  0.00     0.252 S 
ATOM     76  O1S IDS d 506     -14.203  52.743 177.224  0.00  0.00    -0.572 OA
ATOM     77  O2S IDS d 506     -13.883  53.700 175.088  0.00  0.00    -0.572 OA
ATOM     78  O3S IDS d 506     -14.984  54.976 176.807  0.00  0.00    -0.572 OA
ENDBRANCH  74  75
ENDBRANCH  67  74
BRANCH  72  79
ATOM     79  C6  IDS d 506     -20.825  51.881 175.386  0.00  0.00     0.217 C 
ATOM     80  O61 IDS d 506     -21.887  52.076 174.811  0.00  0.00    -0.646 OA
ATOM     81  O62 IDS d 506     -20.845  51.237 176.421  0.00  0.00    -0.646 OA
ENDBRANCH  72  79
ENDBRANCH  65  66
ENDBRANCH  56  65
BRANCH  58  82
ATOM     82  C6  SGN d 505     -15.701  49.023 176.477  0.00  0.00     0.198 C 
BRANCH  82  83
ATOM     83  O6  SGN d 505     -14.486  48.593 176.987  0.00  0.00    -0.235 OA
BRANCH  83  84
ATOM     84  S2  SGN d 505     -13.894  48.913 178.352  0.00  0.00     0.252 S 
ATOM     85  O6S SGN d 505     -13.994  47.700 179.152  0.00  0.00    -0.572 OA
ATOM     86  O4S SGN d 505     -12.526  49.291 178.080  0.00  0.00    -0.572 OA
ATOM     87  O5S SGN d 505     -14.719  49.980 178.863  0.00  0.00    -0.572 OA
ENDBRANCH  83  84
ENDBRANCH  82  83
ENDBRANCH  58  82
ENDBRANCH  52  53
ENDBRANCH   7  52
TORSDOF 27

ENDMDL
MODEL 96
REMARK VINA RESULT:       6.0      2.649     10.385
REMARK  27 active torsions:
REMARK  status: ('A' for Active; 'I' for Inactive)
REMARK    1  A    between atoms: C2_1  and  O2_78 
REMARK    2  A    between atoms: C1_3  and  O4_50 
REMARK    3  A    between atoms: O4_5  and  C4_58 
REMARK    4  A    between atoms: O4_5  and  C1_27 
REMARK    5  A    between atoms: C2_6  and  N_39 
REMARK    6  A    between atoms: S1_9  and  N_39 
REMARK    7  A    between atoms: C6_10  and  C5_52 
REMARK    8  A    between atoms: C2_12  and  N_73 
REMARK    9  A    between atoms: C2_19  and  O2_24 
REMARK   10  A    between atoms: C2_21  and  O2_44 
REMARK   11  A    between atoms: S2_23  and  O6_65 
REMARK   12  A    between atoms: O2_24  and  S_54 
REMARK   13  A    between atoms: C1_28  and  O4_60 
REMARK   14  A    between atoms: C5_29  and  C6_38 
REMARK   15  A    between atoms: C5_30  and  C6_33 
REMARK   16  A    between atoms: S1_34  and  N_73 
REMARK   17  A    between atoms: C5_41  and  C6_46 
REMARK   18  A    between atoms: S_43  and  O2_44 
REMARK   19  A    between atoms: C6_46  and  O6_72 
REMARK   20  A    between atoms: O4_50  and  C4_71 
REMARK   21  A    between atoms: C1_56  and  O4_64 
REMARK   22  A    between atoms: O4_60  and  C4_83 
REMARK   23  A    between atoms: C4_61  and  O4_64 
REMARK   24  A    between atoms: S2_63  and  O6_72 
REMARK   25  A    between atoms: O6_65  and  C6_67 
REMARK   26  A    between atoms: C6_67  and  C5_75 
REMARK   27  A    between atoms: S_76  and  O2_78 
ROOT
ATOM      1  C2  IDS d 504     -12.776  46.233 170.463  0.00  0.00     0.226 C 
ATOM      2  O3  IDS d 504     -13.290  43.836 170.500  0.00  0.00    -0.218 OA
ATOM      3  O5  IDS d 504     -11.672  46.128 172.633  0.00  0.00    -0.318 OA
ATOM      4  C5  IDS d 504     -12.382  44.976 173.024  0.00  0.00     0.234 C 
ATOM      5  C1  IDS d 504     -11.463  46.240 171.221  0.00  0.00     0.269 C 
ATOM      6  C3  IDS d 504     -13.752  45.099 170.960  0.00  0.00     0.216 C 
ATOM      7  C4  IDS d 504     -13.808  45.028 172.479  0.00  0.00     0.189 C 
ENDROOT
BRANCH   5   8
ATOM      8  O4  SGN d 503     -10.658  45.215 170.715  0.00  0.00    -0.326 OA
BRANCH   8   9
ATOM      9  C4  SGN d 503      -9.321  45.565 170.568  0.00  0.00     0.180 C 
ATOM     10  C3  SGN d 503      -9.248  47.024 170.127  0.00  0.00     0.210 C 
ATOM     11  C2  SGN d 503      -7.797  47.468 170.180  0.00  0.00     0.207 C 
ATOM     12  O3  SGN d 503      -9.729  47.108 168.799  0.00  0.00    -0.218 OA
ATOM     13  C1  SGN d 503      -7.170  47.190 171.553  0.00  0.00     0.263 C 
ATOM     14  O5  SGN d 503      -7.290  45.822 171.856  0.00  0.00    -0.327 OA
ATOM     15  C5  SGN d 503      -8.611  45.384 171.921  0.00  0.00     0.179 C 
BRANCH  11  16
ATOM     16  N   SGN d 503      -7.660  48.871 169.832  0.00  0.00    -0.162 NA
BRANCH  16  17
ATOM     17  S1  SGN d 503      -6.326  49.317 169.013  0.00  0.00     0.227 S 
ATOM     18  O1S SGN d 503      -5.787  48.105 168.427  0.00  0.00    -0.577 OA
ATOM     19  O2S SGN d 503      -6.720  50.290 167.995  0.00  0.00    -0.577 OA
ATOM     20  O3S SGN d 503      -5.471  49.862 170.043  0.00  0.00    -0.577 OA
ENDBRANCH  16  17
ENDBRANCH  11  16
BRANCH  13  21
ATOM     21  O4  IDS d 502      -7.759  47.988 172.544  0.00  0.00    -0.326 OA
BRANCH  21  22
ATOM     22  C4  IDS d 502      -6.902  48.942 173.117  0.00  0.00     0.189 C 
ATOM     23  C3  IDS d 502      -7.597  50.316 173.136  0.00  0.00     0.216 C 
ATOM     24  O3  IDS d 502      -6.659  51.300 173.525  0.00  0.00    -0.218 OA
ATOM     25  C2  IDS d 502      -8.750  50.334 174.144  0.00  0.00     0.229 C 
ATOM     26  C1  IDS d 502      -8.330  49.769 175.498  0.00  0.00     0.301 C 
ATOM     27  O1  IDS d 502      -7.505  50.716 176.123  0.00  0.00    -0.187 OA
ATOM     28  O5  IDS d 502      -7.705  48.517 175.358  0.00  0.00    -0.316 OA
ATOM     29  C5  IDS d 502      -6.551  48.518 174.541  0.00  0.00     0.234 C 
BRANCH  25  30
ATOM     30  O2  IDS d 502      -9.767  49.517 173.629  0.00  0.00    -0.232 OA
BRANCH  30  31
ATOM     31  S   IDS d 502     -11.274  49.485 174.047  0.00  0.00     0.252 S 
ATOM     32  O3S IDS d 502     -11.576  50.839 174.434  0.00  0.00    -0.572 OA
ATOM     33  O2S IDS d 502     -11.362  48.535 175.132  0.00  0.00    -0.572 OA
ATOM     34  O1S IDS d 502     -12.027  49.071 172.896  0.00  0.00    -0.572 OA
ENDBRANCH  30  31
ENDBRANCH  25  30
BRANCH  29  35
ATOM     35  C6  IDS d 502      -5.824  47.184 174.635  0.00  0.00     0.216 C 
ATOM     36  O61 IDS d 502      -4.774  47.002 174.069  0.00  0.00    -0.646 OA
ATOM     37  O62 IDS d 502      -6.281  46.267 175.289  0.00  0.00    -0.646 OA
ENDBRANCH  29  35
ENDBRANCH  21  22
ENDBRANCH  13  21
BRANCH  15  38
ATOM     38  C6  SGN d 503      -8.515  43.957 172.388  0.00  0.00     0.198 C 
BRANCH  38  39
ATOM     39  O6  SGN d 503      -7.318  43.420 171.868  0.00  0.00    -0.235 OA
BRANCH  39  40
ATOM     40  S2  SGN d 503      -7.219  42.368 170.732  0.00  0.00     0.252 S 
ATOM     41  O4S SGN d 503      -6.196  41.438 171.071  0.00  0.00    -0.572 OA
ATOM     42  O5S SGN d 503      -8.526  41.727 170.626  0.00  0.00    -0.572 OA
ATOM     43  O6S SGN d 503      -6.831  43.125 169.606  0.00  0.00    -0.572 OA
ENDBRANCH  39  40
ENDBRANCH  38  39
ENDBRANCH  15  38
ENDBRANCH   8   9
ENDBRANCH   5   8
BRANCH   1  44
ATOM     44  O2  IDS d 504     -13.384  47.515 170.609  0.00  0.00    -0.233 OA
BRANCH  44  45
ATOM     45  S   IDS d 504     -13.710  48.512 169.482  0.00  0.00     0.252 S 
ATOM     46  O3S IDS d 504     -14.125  47.683 168.413  0.00  0.00    -0.572 OA
ATOM     47  O2S IDS d 504     -12.527  49.280 169.227  0.00  0.00    -0.572 OA
ATOM     48  O1S IDS d 504     -14.767  49.325 169.962  0.00  0.00    -0.572 OA
ENDBRANCH  44  45
ENDBRANCH   1  44
BRANCH   4  49
ATOM     49  C6  IDS d 504     -12.273  44.767 174.544  0.00  0.00     0.216 C 
ATOM     50  O62 IDS d 504     -11.370  45.296 175.196  0.00  0.00    -0.646 OA
ATOM     51  O61 IDS d 504     -13.070  44.056 175.141  0.00  0.00    -0.646 OA
ENDBRANCH   4  49
BRANCH   7  52
ATOM     52  O4  IDS d 504     -14.480  46.175 172.978  0.00  0.00    -0.326 OA
BRANCH  52  53
ATOM     53  C1  SGN d 505     -15.785  45.919 173.421  0.00  0.00     0.263 C 
ATOM     54  C2  SGN d 505     -16.798  46.793 172.707  0.00  0.00     0.207 C 
ATOM     55  C3  SGN d 505     -16.602  48.275 173.083  0.00  0.00     0.210 C 
ATOM     56  C4  SGN d 505     -16.732  48.336 174.633  0.00  0.00     0.180 C 
ATOM     57  O3  SGN d 505     -17.631  49.037 172.465  0.00  0.00    -0.218 OA
ATOM     58  C5  SGN d 505     -15.663  47.451 175.186  0.00  0.00     0.179 C 
ATOM     59  O5  SGN d 505     -15.881  46.128 174.802  0.00  0.00    -0.327 OA
BRANCH  54  60
ATOM     60  N   SGN d 505     -16.763  46.497 171.256  0.00  0.00    -0.162 NA
BRANCH  60  61
ATOM     61  S1  SGN d 505     -18.217  46.143 170.503  0.00  0.00     0.227 S 
ATOM     62  O3S SGN d 505     -19.211  46.114 171.516  0.00  0.00    -0.577 OA
ATOM     63  O1S SGN d 505     -18.455  47.166 169.506  0.00  0.00    -0.577 OA
ATOM     64  O2S SGN d 505     -18.025  44.837 169.918  0.00  0.00    -0.577 OA
ENDBRANCH  60  61
ENDBRANCH  54  60
BRANCH  56  65
ATOM     65  O4  SGN d 505     -16.518  49.606 175.212  0.00  0.00    -0.326 OA
BRANCH  65  66
ATOM     66  C1  IDS d 506     -17.198  50.751 174.824  0.00  0.00     0.269 C 
ATOM     67  C2  IDS d 506     -16.393  51.981 175.267  0.00  0.00     0.226 C 
ATOM     68  C3  IDS d 506     -17.203  53.305 175.193  0.00  0.00     0.219 C 
ATOM     69  O3  IDS d 506     -17.149  53.795 173.856  0.00  0.00    -0.218 OA
ATOM     70  C4  IDS d 506     -18.684  53.150 175.600  0.00  0.00     0.223 C 
ATOM     71  O4  IDS d 506     -18.737  53.180 177.007  0.00  0.00    -0.217 OA
ATOM     72  C5  IDS d 506     -19.251  51.822 175.088  0.00  0.00     0.237 C 
ATOM     73  O5  IDS d 506     -18.436  50.770 175.488  0.00  0.00    -0.318 OA
BRANCH  67  74
ATOM     74  O2  IDS d 506     -15.975  51.832 176.609  0.00  0.00    -0.233 OA
BRANCH  74  75
ATOM     75  S   IDS d 506     -14.706  52.470 177.322  0.00  0.00     0.252 S 
ATOM     76  O1S IDS d 506     -14.712  51.929 178.646  0.00  0.00    -0.572 OA
ATOM     77  O2S IDS d 506     -13.535  52.057 176.601  0.00  0.00    -0.572 OA
ATOM     78  O3S IDS d 506     -14.922  53.900 177.289  0.00  0.00    -0.572 OA
ENDBRANCH  74  75
ENDBRANCH  67  74
BRANCH  72  79
ATOM     79  C6  IDS d 506     -20.690  51.512 175.456  0.00  0.00     0.217 C 
ATOM     80  O61 IDS d 506     -21.440  52.413 175.806  0.00  0.00    -0.646 OA
ATOM     81  O62 IDS d 506     -21.134  50.376 175.430  0.00  0.00    -0.646 OA
ENDBRANCH  72  79
ENDBRANCH  65  66
ENDBRANCH  56  65
BRANCH  58  82
ATOM     82  C6  SGN d 505     -15.626  47.452 176.680  0.00  0.00     0.198 C 
BRANCH  82  83
ATOM     83  O6  SGN d 505     -14.519  48.217 177.015  0.00  0.00    -0.235 OA
BRANCH  83  84
ATOM     84  S2  SGN d 505     -13.597  48.031 178.212  0.00  0.00     0.252 S 
ATOM     85  O6S SGN d 505     -12.783  49.234 178.311  0.00  0.00    -0.572 OA
ATOM     86  O4S SGN d 505     -14.488  47.865 179.338  0.00  0.00    -0.572 OA
ATOM     87  O5S SGN d 505     -12.818  46.861 177.890  0.00  0.00    -0.572 OA
ENDBRANCH  83  84
ENDBRANCH  82  83
ENDBRANCH  58  82
ENDBRANCH  52  53
ENDBRANCH   7  52
TORSDOF 27

ENDMDL
MODEL 97
REMARK VINA RESULT:       6.1      4.851      7.999
REMARK  27 active torsions:
REMARK  status: ('A' for Active; 'I' for Inactive)
REMARK    1  A    between atoms: C2_1  and  O2_78 
REMARK    2  A    between atoms: C1_3  and  O4_50 
REMARK    3  A    between atoms: O4_5  and  C4_58 
REMARK    4  A    between atoms: O4_5  and  C1_27 
REMARK    5  A    between atoms: C2_6  and  N_39 
REMARK    6  A    between atoms: S1_9  and  N_39 
REMARK    7  A    between atoms: C6_10  and  C5_52 
REMARK    8  A    between atoms: C2_12  and  N_73 
REMARK    9  A    between atoms: C2_19  and  O2_24 
REMARK   10  A    between atoms: C2_21  and  O2_44 
REMARK   11  A    between atoms: S2_23  and  O6_65 
REMARK   12  A    between atoms: O2_24  and  S_54 
REMARK   13  A    between atoms: C1_28  and  O4_60 
REMARK   14  A    between atoms: C5_29  and  C6_38 
REMARK   15  A    between atoms: C5_30  and  C6_33 
REMARK   16  A    between atoms: S1_34  and  N_73 
REMARK   17  A    between atoms: C5_41  and  C6_46 
REMARK   18  A    between atoms: S_43  and  O2_44 
REMARK   19  A    between atoms: C6_46  and  O6_72 
REMARK   20  A    between atoms: O4_50  and  C4_71 
REMARK   21  A    between atoms: C1_56  and  O4_64 
REMARK   22  A    between atoms: O4_60  and  C4_83 
REMARK   23  A    between atoms: C4_61  and  O4_64 
REMARK   24  A    between atoms: S2_63  and  O6_72 
REMARK   25  A    between atoms: O6_65  and  C6_67 
REMARK   26  A    between atoms: C6_67  and  C5_75 
REMARK   27  A    between atoms: S_76  and  O2_78 
ROOT
ATOM      1  C2  IDS d 504     -16.594  52.164 175.110  0.00  0.00     0.226 C 
ATOM      2  O3  IDS d 504     -18.557  50.787 174.594  0.00  0.00    -0.218 OA
ATOM      3  O5  IDS d 504     -15.806  52.075 172.806  0.00  0.00    -0.318 OA
ATOM      4  C5  IDS d 504     -16.496  50.876 172.535  0.00  0.00     0.234 C 
ATOM      5  C1  IDS d 504     -16.428  52.901 173.796  0.00  0.00     0.269 C 
ATOM      6  C3  IDS d 504     -17.174  50.710 174.915  0.00  0.00     0.216 C 
ATOM      7  C4  IDS d 504     -16.490  49.978 173.771  0.00  0.00     0.189 C 
ENDROOT
BRANCH   5   8
ATOM      8  O4  SGN d 503     -17.682  53.369 173.393  0.00  0.00    -0.326 OA
BRANCH   8   9
ATOM      9  C4  SGN d 503     -17.846  54.743 173.531  0.00  0.00     0.180 C 
ATOM     10  C3  SGN d 503     -16.528  55.426 173.174  0.00  0.00     0.210 C 
ATOM     11  C2  SGN d 503     -16.767  56.923 173.111  0.00  0.00     0.207 C 
ATOM     12  O3  SGN d 503     -15.589  55.130 174.190  0.00  0.00    -0.218 OA
ATOM     13  C1  SGN d 503     -17.935  57.271 172.176  0.00  0.00     0.263 C 
ATOM     14  O5  SGN d 503     -19.092  56.593 172.597  0.00  0.00    -0.327 OA
ATOM     15  C5  SGN d 503     -18.959  55.206 172.576  0.00  0.00     0.179 C 
BRANCH  11  16
ATOM     16  N   SGN d 503     -15.566  57.635 172.711  0.00  0.00    -0.162 NA
BRANCH  16  17
ATOM     17  S1  SGN d 503     -14.972  58.748 173.739  0.00  0.00     0.227 S 
ATOM     18  O1S SGN d 503     -14.863  59.981 172.983  0.00  0.00    -0.577 OA
ATOM     19  O2S SGN d 503     -15.901  58.873 174.862  0.00  0.00    -0.577 OA
ATOM     20  O3S SGN d 503     -13.683  58.207 174.105  0.00  0.00    -0.577 OA
ENDBRANCH  16  17
ENDBRANCH  11  16
BRANCH  13  21
ATOM     21  O4  IDS d 502     -17.618  56.967 170.845  0.00  0.00    -0.326 OA
BRANCH  21  22
ATOM     22  C4  IDS d 502     -17.825  58.018 169.936  0.00  0.00     0.189 C 
ATOM     23  C3  IDS d 502     -16.469  58.637 169.546  0.00  0.00     0.216 C 
ATOM     24  O3  IDS d 502     -16.701  59.813 168.795  0.00  0.00    -0.218 OA
ATOM     25  C2  IDS d 502     -15.656  57.673 168.678  0.00  0.00     0.229 C 
ATOM     26  C1  IDS d 502     -16.488  57.092 167.539  0.00  0.00     0.301 C 
ATOM     27  O1  IDS d 502     -16.679  58.103 166.585  0.00  0.00    -0.187 OA
ATOM     28  O5  IDS d 502     -17.700  56.560 168.011  0.00  0.00    -0.316 OA
ATOM     29  C5  IDS d 502     -18.528  57.482 168.691  0.00  0.00     0.234 C 
BRANCH  25  30
ATOM     30  O2  IDS d 502     -15.248  56.614 169.502  0.00  0.00    -0.232 OA
BRANCH  30  31
ATOM     31  S   IDS d 502     -13.836  55.944 169.572  0.00  0.00     0.252 S 
ATOM     32  O3S IDS d 502     -13.873  54.903 168.578  0.00  0.00    -0.572 OA
ATOM     33  O2S IDS d 502     -13.700  55.453 170.924  0.00  0.00    -0.572 OA
ATOM     34  O1S IDS d 502     -12.868  56.957 169.259  0.00  0.00    -0.572 OA
ENDBRANCH  30  31
ENDBRANCH  25  30
BRANCH  29  35
ATOM     35  C6  IDS d 502     -19.899  56.878 168.960  0.00  0.00     0.216 C 
ATOM     36  O61 IDS d 502     -20.869  57.576 169.129  0.00  0.00    -0.646 OA
ATOM     37  O62 IDS d 502     -20.055  55.673 169.005  0.00  0.00    -0.646 OA
ENDBRANCH  29  35
ENDBRANCH  21  22
ENDBRANCH  13  21
BRANCH  15  38
ATOM     38  C6  SGN d 503     -20.330  54.689 172.921  0.00  0.00     0.198 C 
BRANCH  38  39
ATOM     39  O6  SGN d 503     -20.169  53.661 173.874  0.00  0.00    -0.235 OA
BRANCH  39  40
ATOM     40  S2  SGN d 503     -20.743  53.668 175.315  0.00  0.00     0.252 S 
ATOM     41  O4S SGN d 503     -21.764  54.658 175.385  0.00  0.00    -0.572 OA
ATOM     42  O5S SGN d 503     -21.263  52.329 175.575  0.00  0.00    -0.572 OA
ATOM     43  O6S SGN d 503     -19.643  54.048 176.113  0.00  0.00    -0.572 OA
ENDBRANCH  39  40
ENDBRANCH  38  39
ENDBRANCH  15  38
ENDBRANCH   8   9
ENDBRANCH   5   8
BRANCH   1  44
ATOM     44  O2  IDS d 504     -15.325  52.112 175.758  0.00  0.00    -0.233 OA
BRANCH  44  45
ATOM     45  S   IDS d 504     -15.024  52.478 177.223  0.00  0.00     0.252 S 
ATOM     46  O3S IDS d 504     -15.451  53.823 177.325  0.00  0.00    -0.572 OA
ATOM     47  O2S IDS d 504     -13.623  52.271 177.443  0.00  0.00    -0.572 OA
ATOM     48  O1S IDS d 504     -15.812  51.611 178.022  0.00  0.00    -0.572 OA
ENDBRANCH  44  45
ENDBRANCH   1  44
BRANCH   4  49
ATOM     49  C6  IDS d 504     -15.955  50.224 171.252  0.00  0.00     0.216 C 
ATOM     50  O62 IDS d 504     -14.929  50.639 170.710  0.00  0.00    -0.646 OA
ATOM     51  O61 IDS d 504     -16.542  49.286 170.727  0.00  0.00    -0.646 OA
ENDBRANCH   4  49
BRANCH   7  52
ATOM     52  O4  IDS d 504     -15.155  49.668 174.143  0.00  0.00    -0.326 OA
BRANCH  52  53
ATOM     53  C1  SGN d 505     -14.983  48.352 174.592  0.00  0.00     0.263 C 
ATOM     54  C2  SGN d 505     -13.682  48.188 175.353  0.00  0.00     0.207 C 
ATOM     55  C3  SGN d 505     -12.473  48.382 174.417  0.00  0.00     0.210 C 
ATOM     56  C4  SGN d 505     -12.649  47.333 173.281  0.00  0.00     0.180 C 
ATOM     57  O3  SGN d 505     -11.285  48.125 175.155  0.00  0.00    -0.218 OA
ATOM     58  C5  SGN d 505     -13.952  47.636 172.617  0.00  0.00     0.179 C 
ATOM     59  O5  SGN d 505     -15.006  47.461 173.513  0.00  0.00    -0.327 OA
BRANCH  54  60
ATOM     60  N   SGN d 505     -13.703  49.059 176.551  0.00  0.00    -0.162 NA
BRANCH  60  61
ATOM     61  S1  SGN d 505     -13.876  48.319 178.044  0.00  0.00     0.227 S 
ATOM     62  O3S SGN d 505     -15.262  48.072 178.226  0.00  0.00    -0.577 OA
ATOM     63  O1S SGN d 505     -13.083  47.107 178.027  0.00  0.00    -0.577 OA
ATOM     64  O2S SGN d 505     -13.384  49.285 178.998  0.00  0.00    -0.577 OA
ENDBRANCH  60  61
ENDBRANCH  54  60
BRANCH  56  65
ATOM     65  O4  SGN d 505     -11.676  47.375 172.258  0.00  0.00    -0.326 OA
BRANCH  65  66
ATOM     66  C1  IDS d 506     -10.540  46.581 172.247  0.00  0.00     0.269 C 
ATOM     67  C2  IDS d 506      -9.591  47.086 171.151  0.00  0.00     0.226 C 
ATOM     68  C3  IDS d 506      -8.450  46.086 170.816  0.00  0.00     0.219 C 
ATOM     69  O3  IDS d 506      -7.398  46.266 171.760  0.00  0.00    -0.218 OA
ATOM     70  C4  IDS d 506      -8.891  44.607 170.849  0.00  0.00     0.223 C 
ATOM     71  O4  IDS d 506      -9.515  44.329 169.618  0.00  0.00    -0.217 OA
ATOM     72  C5  IDS d 506      -9.876  44.360 171.996  0.00  0.00     0.237 C 
ATOM     73  O5  IDS d 506     -10.926  45.268 171.927  0.00  0.00    -0.318 OA
BRANCH  67  74
ATOM     74  O2  IDS d 506     -10.307  47.307 169.952  0.00  0.00    -0.233 OA
BRANCH  74  75
ATOM     75  S   IDS d 506      -9.911  48.239 168.727  0.00  0.00     0.252 S 
ATOM     76  O1S IDS d 506      -9.051  49.238 169.282  0.00  0.00    -0.572 OA
ATOM     77  O2S IDS d 506      -9.214  47.436 167.762  0.00  0.00    -0.572 OA
ATOM     78  O3S IDS d 506     -11.160  48.774 168.228  0.00  0.00    -0.572 OA
ENDBRANCH  74  75
ENDBRANCH  67  74
BRANCH  72  79
ATOM     79  C6  IDS d 506     -10.434  42.955 172.122  0.00  0.00     0.217 C 
ATOM     80  O61 IDS d 506     -11.631  42.786 172.309  0.00  0.00    -0.646 OA
ATOM     81  O62 IDS d 506      -9.720  41.968 172.058  0.00  0.00    -0.646 OA
ENDBRANCH  72  79
ENDBRANCH  65  66
ENDBRANCH  56  65
BRANCH  58  82
ATOM     82  C6  SGN d 505     -14.235  46.738 171.456  0.00  0.00     0.198 C 
BRANCH  82  83
ATOM     83  O6  SGN d 505     -14.013  47.518 170.331  0.00  0.00    -0.235 OA
BRANCH  83  84
ATOM     84  S2  SGN d 505     -14.443  47.218 168.903  0.00  0.00     0.252 S 
ATOM     85  O6S SGN d 505     -14.387  48.476 168.171  0.00  0.00    -0.572 OA
ATOM     86  O4S SGN d 505     -13.481  46.251 168.425  0.00  0.00    -0.572 OA
ATOM     87  O5S SGN d 505     -15.787  46.712 169.029  0.00  0.00    -0.572 OA
ENDBRANCH  83  84
ENDBRANCH  82  83
ENDBRANCH  58  82
ENDBRANCH  52  53
ENDBRANCH   7  52
TORSDOF 27

ENDMDL
MODEL 98
REMARK VINA RESULT:       6.6      3.428      8.563
REMARK  27 active torsions:
REMARK  status: ('A' for Active; 'I' for Inactive)
REMARK    1  A    between atoms: C2_1  and  O2_78 
REMARK    2  A    between atoms: C1_3  and  O4_50 
REMARK    3  A    between atoms: O4_5  and  C4_58 
REMARK    4  A    between atoms: O4_5  and  C1_27 
REMARK    5  A    between atoms: C2_6  and  N_39 
REMARK    6  A    between atoms: S1_9  and  N_39 
REMARK    7  A    between atoms: C6_10  and  C5_52 
REMARK    8  A    between atoms: C2_12  and  N_73 
REMARK    9  A    between atoms: C2_19  and  O2_24 
REMARK   10  A    between atoms: C2_21  and  O2_44 
REMARK   11  A    between atoms: S2_23  and  O6_65 
REMARK   12  A    between atoms: O2_24  and  S_54 
REMARK   13  A    between atoms: C1_28  and  O4_60 
REMARK   14  A    between atoms: C5_29  and  C6_38 
REMARK   15  A    between atoms: C5_30  and  C6_33 
REMARK   16  A    between atoms: S1_34  and  N_73 
REMARK   17  A    between atoms: C5_41  and  C6_46 
REMARK   18  A    between atoms: S_43  and  O2_44 
REMARK   19  A    between atoms: C6_46  and  O6_72 
REMARK   20  A    between atoms: O4_50  and  C4_71 
REMARK   21  A    between atoms: C1_56  and  O4_64 
REMARK   22  A    between atoms: O4_60  and  C4_83 
REMARK   23  A    between atoms: C4_61  and  O4_64 
REMARK   24  A    between atoms: S2_63  and  O6_72 
REMARK   25  A    between atoms: O6_65  and  C6_67 
REMARK   26  A    between atoms: C6_67  and  C5_75 
REMARK   27  A    between atoms: S_76  and  O2_78 
ROOT
ATOM      1  C2  IDS d 504     -13.577  47.500 176.283  0.00  0.00     0.226 C 
ATOM      2  O3  IDS d 504     -11.511  47.356 174.969  0.00  0.00    -0.218 OA
ATOM      3  O5  IDS d 504     -14.970  47.334 174.291  0.00  0.00    -0.318 OA
ATOM      4  C5  IDS d 504     -13.952  47.820 173.445  0.00  0.00     0.234 C 
ATOM      5  C1  IDS d 504     -14.493  46.632 175.444  0.00  0.00     0.269 C 
ATOM      6  C3  IDS d 504     -12.509  48.267 175.412  0.00  0.00     0.216 C 
ATOM      7  C4  IDS d 504     -13.133  48.885 174.170  0.00  0.00     0.189 C 
ENDROOT
BRANCH   5   8
ATOM      8  O4  SGN d 503     -13.806  45.461 175.111  0.00  0.00    -0.326 OA
BRANCH   8   9
ATOM      9  C4  SGN d 503     -14.603  44.322 175.094  0.00  0.00     0.180 C 
ATOM     10  C3  SGN d 503     -15.766  44.530 176.061  0.00  0.00     0.210 C 
ATOM     11  C2  SGN d 503     -16.749  43.388 175.879  0.00  0.00     0.207 C 
ATOM     12  O3  SGN d 503     -15.251  44.517 177.378  0.00  0.00    -0.218 OA
ATOM     13  C1  SGN d 503     -17.167  43.230 174.410  0.00  0.00     0.263 C 
ATOM     14  O5  SGN d 503     -16.024  43.042 173.613  0.00  0.00    -0.327 OA
ATOM     15  C5  SGN d 503     -15.133  44.112 173.664  0.00  0.00     0.179 C 
BRANCH  11  16
ATOM     16  N   SGN d 503     -17.917  43.554 176.725  0.00  0.00    -0.162 NA
BRANCH  16  17
ATOM     17  S1  SGN d 503     -18.253  42.368 177.787  0.00  0.00     0.227 S 
ATOM     18  O1S SGN d 503     -19.125  41.439 177.093  0.00  0.00    -0.577 OA
ATOM     19  O2S SGN d 503     -16.993  41.743 178.188  0.00  0.00    -0.577 OA
ATOM     20  O3S SGN d 503     -18.928  43.064 178.859  0.00  0.00    -0.577 OA
ENDBRANCH  16  17
ENDBRANCH  11  16
BRANCH  13  21
ATOM     21  O4  IDS d 502     -17.916  44.334 173.981  0.00  0.00    -0.326 OA
BRANCH  21  22
ATOM     22  C4  IDS d 502     -19.121  44.013 173.334  0.00  0.00     0.189 C 
ATOM     23  C3  IDS d 502     -20.306  44.318 174.269  0.00  0.00     0.216 C 
ATOM     24  O3  IDS d 502     -21.491  43.806 173.691  0.00  0.00    -0.218 OA
ATOM     25  C2  IDS d 502     -20.483  45.828 174.456  0.00  0.00     0.229 C 
ATOM     26  C1  IDS d 502     -20.462  46.572 173.125  0.00  0.00     0.301 C 
ATOM     27  O1  IDS d 502     -21.673  46.311 172.466  0.00  0.00    -0.187 OA
ATOM     28  O5  IDS d 502     -19.341  46.214 172.357  0.00  0.00    -0.316 OA
ATOM     29  C5  IDS d 502     -19.245  44.836 172.054  0.00  0.00     0.234 C 
BRANCH  25  30
ATOM     30  O2  IDS d 502     -19.401  46.282 175.225  0.00  0.00    -0.232 OA
BRANCH  30  31
ATOM     31  S   IDS d 502     -19.447  46.980 176.624  0.00  0.00     0.252 S 
ATOM     32  O3S IDS d 502     -18.073  47.033 177.053  0.00  0.00    -0.572 OA
ATOM     33  O2S IDS d 502     -20.284  46.146 177.454  0.00  0.00    -0.572 OA
ATOM     34  O1S IDS d 502     -20.003  48.290 176.429  0.00  0.00    -0.572 OA
ENDBRANCH  30  31
ENDBRANCH  25  30
BRANCH  29  35
ATOM     35  C6  IDS d 502     -18.139  44.584 171.039  0.00  0.00     0.216 C 
ATOM     36  O61 IDS d 502     -18.191  43.652 170.274  0.00  0.00    -0.646 OA
ATOM     37  O62 IDS d 502     -17.173  45.319 170.970  0.00  0.00    -0.646 OA
ENDBRANCH  29  35
ENDBRANCH  21  22
ENDBRANCH  13  21
BRANCH  15  38
ATOM     38  C6  SGN d 503     -14.073  43.772 172.652  0.00  0.00     0.198 C 
BRANCH  38  39
ATOM     39  O6  SGN d 503     -14.015  44.834 171.724  0.00  0.00    -0.235 OA
BRANCH  39  40
ATOM     40  S2  SGN d 503     -12.976  44.979 170.581  0.00  0.00     0.252 S 
ATOM     41  O4S SGN d 503     -11.973  45.897 171.003  0.00  0.00    -0.572 OA
ATOM     42  O5S SGN d 503     -12.427  43.649 170.331  0.00  0.00    -0.572 OA
ATOM     43  O6S SGN d 503     -13.721  45.529 169.517  0.00  0.00    -0.572 OA
ENDBRANCH  39  40
ENDBRANCH  38  39
ENDBRANCH  15  38
ENDBRANCH   8   9
ENDBRANCH   5   8
BRANCH   1  44
ATOM     44  O2  IDS d 504     -14.381  48.424 177.014  0.00  0.00    -0.233 OA
BRANCH  44  45
ATOM     45  S   IDS d 504     -14.195  48.844 178.483  0.00  0.00     0.252 S 
ATOM     46  O3S IDS d 504     -15.010  49.994 178.608  0.00  0.00    -0.572 OA
ATOM     47  O2S IDS d 504     -12.795  49.072 178.695  0.00  0.00    -0.572 OA
ATOM     48  O1S IDS d 504     -14.673  47.768 179.271  0.00  0.00    -0.572 OA
ENDBRANCH  44  45
ENDBRANCH   1  44
BRANCH   4  49
ATOM     49  C6  IDS d 504     -14.540  48.257 172.093  0.00  0.00     0.216 C 
ATOM     50  O62 IDS d 504     -15.749  48.172 171.867  0.00  0.00    -0.646 OA
ATOM     51  O61 IDS d 504     -13.818  48.683 171.201  0.00  0.00    -0.646 OA
ENDBRANCH   4  49
BRANCH   7  52
ATOM     52  O4  IDS d 504     -13.968  49.968 174.553  0.00  0.00    -0.326 OA
BRANCH  52  53
ATOM     53  C1  SGN d 505     -13.729  51.149 173.838  0.00  0.00     0.263 C 
ATOM     54  C2  SGN d 505     -13.421  52.309 174.765  0.00  0.00     0.207 C 
ATOM     55  C3  SGN d 505     -14.656  52.675 175.611  0.00  0.00     0.210 C 
ATOM     56  C4  SGN d 505     -15.785  52.997 174.589  0.00  0.00     0.180 C 
ATOM     57  O3  SGN d 505     -14.345  53.823 176.389  0.00  0.00    -0.218 OA
ATOM     58  C5  SGN d 505     -15.986  51.762 173.772  0.00  0.00     0.179 C 
ATOM     59  O5  SGN d 505     -14.835  51.470 173.042  0.00  0.00    -0.327 OA
BRANCH  54  60
ATOM     60  N   SGN d 505     -12.192  52.007 175.535  0.00  0.00    -0.162 NA
BRANCH  60  61
ATOM     61  S1  SGN d 505     -10.721  52.232 174.763  0.00  0.00     0.227 S 
ATOM     62  O3S SGN d 505      -9.734  52.344 175.778  0.00  0.00    -0.577 OA
ATOM     63  O1S SGN d 505     -10.507  51.097 173.889  0.00  0.00    -0.577 OA
ATOM     64  O2S SGN d 505     -10.869  53.470 174.034  0.00  0.00    -0.577 OA
ENDBRANCH  60  61
ENDBRANCH  54  60
BRANCH  56  65
ATOM     65  O4  SGN d 505     -17.046  53.297 175.150  0.00  0.00    -0.326 OA
BRANCH  65  66
ATOM     66  C1  IDS d 506     -17.555  54.584 175.248  0.00  0.00     0.269 C 
ATOM     67  C2  IDS d 506     -19.037  54.503 175.641  0.00  0.00     0.226 C 
ATOM     68  C3  IDS d 506     -19.797  55.845 175.453  0.00  0.00     0.219 C 
ATOM     69  O3  IDS d 506     -19.573  56.657 176.604  0.00  0.00    -0.218 OA
ATOM     70  C4  IDS d 506     -19.360  56.637 174.202  0.00  0.00     0.223 C 
ATOM     71  O4  IDS d 506     -20.039  56.082 173.099  0.00  0.00    -0.217 OA
ATOM     72  C5  IDS d 506     -17.847  56.523 173.989  0.00  0.00     0.237 C 
ATOM     73  O5  IDS d 506     -17.465  55.187 173.982  0.00  0.00    -0.318 OA
BRANCH  67  74
ATOM     74  O2  IDS d 506     -19.700  53.542 174.843  0.00  0.00    -0.233 OA
BRANCH  74  75
ATOM     75  S   IDS d 506     -21.128  52.885 175.077  0.00  0.00     0.252 S 
ATOM     76  O1S IDS d 506     -21.913  53.910 175.692  0.00  0.00    -0.572 OA
ATOM     77  O2S IDS d 506     -21.666  52.519 173.798  0.00  0.00    -0.572 OA
ATOM     78  O3S IDS d 506     -20.894  51.750 175.944  0.00  0.00    -0.572 OA
ENDBRANCH  74  75
ENDBRANCH  67  74
BRANCH  72  79
ATOM     79  C6  IDS d 506     -17.281  57.215 172.763  0.00  0.00     0.217 C 
ATOM     80  O61 IDS d 506     -17.071  58.420 172.783  0.00  0.00    -0.646 OA
ATOM     81  O62 IDS d 506     -17.035  56.609 171.734  0.00  0.00    -0.646 OA
ENDBRANCH  72  79
ENDBRANCH  65  66
ENDBRANCH  56  65
BRANCH  58  82
ATOM     82  C6  SGN d 505     -17.091  51.901 172.775  0.00  0.00     0.198 C 
BRANCH  82  83
ATOM     83  O6  SGN d 505     -17.700  50.656 172.733  0.00  0.00    -0.235 OA
BRANCH  83  84
ATOM     84  S2  SGN d 505     -19.117  50.339 172.277  0.00  0.00     0.252 S 
ATOM     85  O6S SGN d 505     -19.009  49.331 171.230  0.00  0.00    -0.572 OA
ATOM     86  O4S SGN d 505     -19.781  49.844 173.461  0.00  0.00    -0.572 OA
ATOM     87  O5S SGN d 505     -19.628  51.593 171.784  0.00  0.00    -0.572 OA
ENDBRANCH  83  84
ENDBRANCH  82  83
ENDBRANCH  58  82
ENDBRANCH  52  53
ENDBRANCH   7  52
TORSDOF 27

ENDMDL
MODEL 99
REMARK VINA RESULT:       6.8      3.178     11.080
REMARK  27 active torsions:
REMARK  status: ('A' for Active; 'I' for Inactive)
REMARK    1  A    between atoms: C2_1  and  O2_78 
REMARK    2  A    between atoms: C1_3  and  O4_50 
REMARK    3  A    between atoms: O4_5  and  C4_58 
REMARK    4  A    between atoms: O4_5  and  C1_27 
REMARK    5  A    between atoms: C2_6  and  N_39 
REMARK    6  A    between atoms: S1_9  and  N_39 
REMARK    7  A    between atoms: C6_10  and  C5_52 
REMARK    8  A    between atoms: C2_12  and  N_73 
REMARK    9  A    between atoms: C2_19  and  O2_24 
REMARK   10  A    between atoms: C2_21  and  O2_44 
REMARK   11  A    between atoms: S2_23  and  O6_65 
REMARK   12  A    between atoms: O2_24  and  S_54 
REMARK   13  A    between atoms: C1_28  and  O4_60 
REMARK   14  A    between atoms: C5_29  and  C6_38 
REMARK   15  A    between atoms: C5_30  and  C6_33 
REMARK   16  A    between atoms: S1_34  and  N_73 
REMARK   17  A    between atoms: C5_41  and  C6_46 
REMARK   18  A    between atoms: S_43  and  O2_44 
REMARK   19  A    between atoms: C6_46  and  O6_72 
REMARK   20  A    between atoms: O4_50  and  C4_71 
REMARK   21  A    between atoms: C1_56  and  O4_64 
REMARK   22  A    between atoms: O4_60  and  C4_83 
REMARK   23  A    between atoms: C4_61  and  O4_64 
REMARK   24  A    between atoms: S2_63  and  O6_72 
REMARK   25  A    between atoms: O6_65  and  C6_67 
REMARK   26  A    between atoms: C6_67  and  C5_75 
REMARK   27  A    between atoms: S_76  and  O2_78 
ROOT
ATOM      1  C2  IDS d 504     -11.605  47.223 172.972  0.00  0.00     0.226 C 
ATOM      2  O3  IDS d 504     -12.695  45.932 174.750  0.00  0.00    -0.218 OA
ATOM      3  O5  IDS d 504     -11.145  49.086 174.473  0.00  0.00    -0.318 OA
ATOM      4  C5  IDS d 504     -12.196  48.741 175.347  0.00  0.00     0.234 C 
ATOM      5  C1  IDS d 504     -10.567  47.974 173.781  0.00  0.00     0.269 C 
ATOM      6  C3  IDS d 504     -12.927  46.955 173.789  0.00  0.00     0.216 C 
ATOM      7  C4  IDS d 504     -13.379  48.190 174.553  0.00  0.00     0.189 C 
ENDROOT
BRANCH   5   8
ATOM      8  O4  SGN d 503      -9.944  47.070 174.646  0.00  0.00    -0.326 OA
BRANCH   8   9
ATOM      9  C4  SGN d 503      -8.563  47.005 174.499  0.00  0.00     0.180 C 
ATOM     10  C3  SGN d 503      -8.245  46.154 173.271  0.00  0.00     0.210 C 
ATOM     11  C2  SGN d 503      -6.759  46.266 172.984  0.00  0.00     0.207 C 
ATOM     12  O3  SGN d 503      -8.580  44.812 173.567  0.00  0.00    -0.218 OA
ATOM     13  C1  SGN d 503      -6.312  47.730 172.872  0.00  0.00     0.263 C 
ATOM     14  O5  SGN d 503      -6.650  48.416 174.052  0.00  0.00    -0.327 OA
ATOM     15  C5  SGN d 503      -8.019  48.432 174.310  0.00  0.00     0.179 C 
BRANCH  11  16
ATOM     16  N   SGN d 503      -6.395  45.530 171.786  0.00  0.00    -0.162 NA
BRANCH  16  17
ATOM     17  S1  SGN d 503      -5.226  44.405 171.920  0.00  0.00     0.227 S 
ATOM     18  O1S SGN d 503      -4.597  44.319 170.615  0.00  0.00    -0.577 OA
ATOM     19  O2S SGN d 503      -4.289  44.841 172.954  0.00  0.00    -0.577 OA
ATOM     20  O3S SGN d 503      -5.958  43.206 172.261  0.00  0.00    -0.577 OA
ENDBRANCH  16  17
ENDBRANCH  11  16
BRANCH  13  21
ATOM     21  O4  IDS d 502      -6.877  48.341 171.744  0.00  0.00    -0.326 OA
BRANCH  21  22
ATOM     22  C4  IDS d 502      -6.055  49.291 171.116  0.00  0.00     0.189 C 
ATOM     23  C3  IDS d 502      -5.341  48.643 169.915  0.00  0.00     0.216 C 
ATOM     24  O3  IDS d 502      -4.370  49.543 169.417  0.00  0.00    -0.218 OA
ATOM     25  C2  IDS d 502      -6.331  48.340 168.787  0.00  0.00     0.229 C 
ATOM     26  C1  IDS d 502      -7.224  49.537 168.477  0.00  0.00     0.301 C 
ATOM     27  O1  IDS d 502      -6.447  50.493 167.806  0.00  0.00    -0.187 OA
ATOM     28  O5  IDS d 502      -7.819  50.046 169.644  0.00  0.00    -0.316 OA
ATOM     29  C5  IDS d 502      -6.907  50.465 170.640  0.00  0.00     0.234 C 
BRANCH  25  30
ATOM     30  O2  IDS d 502      -7.150  47.287 169.222  0.00  0.00    -0.232 OA
BRANCH  30  31
ATOM     31  S   IDS d 502      -7.813  46.168 168.354  0.00  0.00     0.252 S 
ATOM     32  O3S IDS d 502      -8.633  46.876 167.405  0.00  0.00    -0.572 OA
ATOM     33  O2S IDS d 502      -8.565  45.348 169.275  0.00  0.00    -0.572 OA
ATOM     34  O1S IDS d 502      -6.753  45.440 167.714  0.00  0.00    -0.572 OA
ENDBRANCH  30  31
ENDBRANCH  25  30
BRANCH  29  35
ATOM     35  C6  IDS d 502      -7.632  51.204 171.757  0.00  0.00     0.216 C 
ATOM     36  O61 IDS d 502      -8.783  50.959 172.026  0.00  0.00    -0.646 OA
ATOM     37  O62 IDS d 502      -7.067  52.058 172.411  0.00  0.00    -0.646 OA
ENDBRANCH  29  35
ENDBRANCH  21  22
ENDBRANCH  13  21
BRANCH  15  38
ATOM     38  C6  SGN d 503      -8.168  49.319 175.516  0.00  0.00     0.198 C 
BRANCH  38  39
ATOM     39  O6  SGN d 503      -7.185  50.328 175.426  0.00  0.00    -0.235 OA
BRANCH  39  40
ATOM     40  S2  SGN d 503      -7.305  51.760 176.009  0.00  0.00     0.252 S 
ATOM     41  O4S SGN d 503      -6.149  52.498 175.625  0.00  0.00    -0.572 OA
ATOM     42  O5S SGN d 503      -8.529  52.342 175.467  0.00  0.00    -0.572 OA
ATOM     43  O6S SGN d 503      -7.307  51.555 177.405  0.00  0.00    -0.572 OA
ENDBRANCH  39  40
ENDBRANCH  38  39
ENDBRANCH  15  38
ENDBRANCH   8   9
ENDBRANCH   5   8
BRANCH   1  44
ATOM     44  O2  IDS d 504     -11.890  47.978 171.796  0.00  0.00    -0.233 OA
BRANCH  44  45
ATOM     45  S   IDS d 504     -11.194  47.849 170.429  0.00  0.00     0.252 S 
ATOM     46  O3S IDS d 504     -11.563  46.556 169.987  0.00  0.00    -0.572 OA
ATOM     47  O2S IDS d 504      -9.789  48.037 170.639  0.00  0.00    -0.572 OA
ATOM     48  O1S IDS d 504     -11.740  48.865 169.606  0.00  0.00    -0.572 OA
ENDBRANCH  44  45
ENDBRANCH   1  44
BRANCH   4  49
ATOM     49  C6  IDS d 504     -12.528  49.919 176.279  0.00  0.00     0.216 C 
ATOM     50  O62 IDS d 504     -12.899  49.728 177.439  0.00  0.00    -0.646 OA
ATOM     51  O61 IDS d 504     -12.448  51.075 175.885  0.00  0.00    -0.646 OA
ENDBRANCH   4  49
BRANCH   7  52
ATOM     52  O4  IDS d 504     -13.846  49.166 173.632  0.00  0.00    -0.326 OA
BRANCH  52  53
ATOM     53  C1  SGN d 505     -15.184  48.992 173.253  0.00  0.00     0.263 C 
ATOM     54  C2  SGN d 505     -15.536  49.839 172.045  0.00  0.00     0.207 C 
ATOM     55  C3  SGN d 505     -15.479  51.339 172.395  0.00  0.00     0.210 C 
ATOM     56  C4  SGN d 505     -16.468  51.532 173.580  0.00  0.00     0.180 C 
ATOM     57  O3  SGN d 505     -15.908  52.082 171.261  0.00  0.00    -0.218 OA
ATOM     58  C5  SGN d 505     -15.980  50.659 174.690  0.00  0.00     0.179 C 
ATOM     59  O5  SGN d 505     -16.038  49.317 174.314  0.00  0.00    -0.327 OA
BRANCH  54  60
ATOM     60  N   SGN d 505     -14.698  49.424 170.896  0.00  0.00    -0.162 NA
BRANCH  60  61
ATOM     61  S1  SGN d 505     -15.313  48.244 169.877  0.00  0.00     0.227 S 
ATOM     62  O3S SGN d 505     -16.727  48.309 169.974  0.00  0.00    -0.577 OA
ATOM     63  O1S SGN d 505     -14.823  48.520 168.543  0.00  0.00    -0.577 OA
ATOM     64  O2S SGN d 505     -14.807  46.997 170.403  0.00  0.00    -0.577 OA
ENDBRANCH  60  61
ENDBRANCH  54  60
BRANCH  56  65
ATOM     65  O4  SGN d 505     -16.530  52.837 174.116  0.00  0.00    -0.326 OA
BRANCH  65  66
ATOM     66  C1  IDS d 506     -17.593  53.703 173.908  0.00  0.00     0.269 C 
ATOM     67  C2  IDS d 506     -17.140  55.134 174.233  0.00  0.00     0.226 C 
ATOM     68  C3  IDS d 506     -18.319  56.137 174.364  0.00  0.00     0.219 C 
ATOM     69  O3  IDS d 506     -18.679  56.585 173.059  0.00  0.00    -0.218 OA
ATOM     70  C4  IDS d 506     -19.571  55.539 175.040  0.00  0.00     0.223 C 
ATOM     71  O4  IDS d 506     -19.357  55.587 176.431  0.00  0.00    -0.217 OA
ATOM     72  C5  IDS d 506     -19.785  54.088 174.599  0.00  0.00     0.237 C 
ATOM     73  O5  IDS d 506     -18.623  53.352 174.796  0.00  0.00    -0.318 OA
BRANCH  67  74
ATOM     74  O2  IDS d 506     -16.444  55.156 175.464  0.00  0.00    -0.233 OA
BRANCH  74  75
ATOM     75  S   IDS d 506     -15.227  56.084 175.890  0.00  0.00     0.252 S 
ATOM     76  O1S IDS d 506     -15.651  57.416 175.585  0.00  0.00    -0.572 OA
ATOM     77  O2S IDS d 506     -15.013  55.920 177.300  0.00  0.00    -0.572 OA
ATOM     78  O3S IDS d 506     -14.106  55.646 175.087  0.00  0.00    -0.572 OA
ENDBRANCH  74  75
ENDBRANCH  67  74
BRANCH  72  79
ATOM     79  C6  IDS d 506     -20.957  53.354 175.223  0.00  0.00     0.217 C 
ATOM     80  O61 IDS d 506     -20.808  52.221 175.658  0.00  0.00    -0.646 OA
ATOM     81  O62 IDS d 506     -22.067  53.854 175.297  0.00  0.00    -0.646 OA
ENDBRANCH  72  79
ENDBRANCH  65  66
ENDBRANCH  56  65
BRANCH  58  82
ATOM     82  C6  SGN d 505     -16.805  50.782 175.930  0.00  0.00     0.198 C 
BRANCH  82  83
ATOM     83  O6  SGN d 505     -15.891  50.835 176.971  0.00  0.00    -0.235 OA
BRANCH  83  84
ATOM     84  S2  SGN d 505     -15.713  51.956 177.985  0.00  0.00     0.252 S 
ATOM     85  O6S SGN d 505     -16.985  52.663 178.062  0.00  0.00    -0.572 OA
ATOM     86  O4S SGN d 505     -15.372  51.285 179.219  0.00  0.00    -0.572 OA
ATOM     87  O5S SGN d 505     -14.660  52.775 177.439  0.00  0.00    -0.572 OA
ENDBRANCH  83  84
ENDBRANCH  82  83
ENDBRANCH  58  82
ENDBRANCH  52  53
ENDBRANCH   7  52
TORSDOF 27

ENDMDL
MODEL 100
REMARK VINA RESULT:       7.6      4.300      7.495
REMARK  27 active torsions:
REMARK  status: ('A' for Active; 'I' for Inactive)
REMARK    1  A    between atoms: C2_1  and  O2_78 
REMARK    2  A    between atoms: C1_3  and  O4_50 
REMARK    3  A    between atoms: O4_5  and  C4_58 
REMARK    4  A    between atoms: O4_5  and  C1_27 
REMARK    5  A    between atoms: C2_6  and  N_39 
REMARK    6  A    between atoms: S1_9  and  N_39 
REMARK    7  A    between atoms: C6_10  and  C5_52 
REMARK    8  A    between atoms: C2_12  and  N_73 
REMARK    9  A    between atoms: C2_19  and  O2_24 
REMARK   10  A    between atoms: C2_21  and  O2_44 
REMARK   11  A    between atoms: S2_23  and  O6_65 
REMARK   12  A    between atoms: O2_24  and  S_54 
REMARK   13  A    between atoms: C1_28  and  O4_60 
REMARK   14  A    between atoms: C5_29  and  C6_38 
REMARK   15  A    between atoms: C5_30  and  C6_33 
REMARK   16  A    between atoms: S1_34  and  N_73 
REMARK   17  A    between atoms: C5_41  and  C6_46 
REMARK   18  A    between atoms: S_43  and  O2_44 
REMARK   19  A    between atoms: C6_46  and  O6_72 
REMARK   20  A    between atoms: O4_50  and  C4_71 
REMARK   21  A    between atoms: C1_56  and  O4_64 
REMARK   22  A    between atoms: O4_60  and  C4_83 
REMARK   23  A    between atoms: C4_61  and  O4_64 
REMARK   24  A    between atoms: S2_63  and  O6_72 
REMARK   25  A    between atoms: O6_65  and  C6_67 
REMARK   26  A    between atoms: C6_67  and  C5_75 
REMARK   27  A    between atoms: S_76  and  O2_78 
ROOT
ATOM      1  C2  IDS d 504     -16.881  51.177 175.850  0.00  0.00     0.226 C 
ATOM      2  O3  IDS d 504     -18.391  49.293 175.420  0.00  0.00    -0.218 OA
ATOM      3  O5  IDS d 504     -16.548  51.579 173.470  0.00  0.00    -0.318 OA
ATOM      4  C5  IDS d 504     -16.876  50.253 173.122  0.00  0.00     0.234 C 
ATOM      5  C1  IDS d 504     -17.195  52.055 174.655  0.00  0.00     0.269 C 
ATOM      6  C3  IDS d 504     -17.015  49.641 175.521  0.00  0.00     0.216 C 
ATOM      7  C4  IDS d 504     -16.367  49.290 174.191  0.00  0.00     0.189 C 
ENDROOT
BRANCH   5   8
ATOM      8  O4  SGN d 503     -18.585  52.124 174.514  0.00  0.00    -0.326 OA
BRANCH   8   9
ATOM      9  C4  SGN d 503     -19.058  53.390 174.184  0.00  0.00     0.180 C 
ATOM     10  C3  SGN d 503     -18.352  54.416 175.067  0.00  0.00     0.210 C 
ATOM     11  C2  SGN d 503     -18.702  55.803 174.560  0.00  0.00     0.207 C 
ATOM     12  O3  SGN d 503     -18.822  54.255 176.392  0.00  0.00    -0.218 OA
ATOM     13  C1  SGN d 503     -18.406  55.949 173.060  0.00  0.00     0.263 C 
ATOM     14  O5  SGN d 503     -19.106  54.960 172.346  0.00  0.00    -0.327 OA
ATOM     15  C5  SGN d 503     -18.747  53.662 172.702  0.00  0.00     0.179 C 
BRANCH  11  16
ATOM     16  N   SGN d 503     -18.011  56.833 175.316  0.00  0.00    -0.162 NA
BRANCH  16  17
ATOM     17  S1  SGN d 503     -18.626  58.339 175.273  0.00  0.00     0.227 S 
ATOM     18  O1S SGN d 503     -17.493  59.235 175.140  0.00  0.00    -0.577 OA
ATOM     19  O2S SGN d 503     -19.534  58.429 174.131  0.00  0.00    -0.577 OA
ATOM     20  O3S SGN d 503     -19.283  58.465 176.554  0.00  0.00    -0.577 OA
ENDBRANCH  16  17
ENDBRANCH  11  16
BRANCH  13  21
ATOM     21  O4  IDS d 502     -17.028  55.882 172.812  0.00  0.00    -0.326 OA
BRANCH  21  22
ATOM     22  C4  IDS d 502     -16.441  57.098 172.426  0.00  0.00     0.189 C 
ATOM     23  C3  IDS d 502     -14.993  57.161 172.948  0.00  0.00     0.216 C 
ATOM     24  O3  IDS d 502     -14.483  58.462 172.729  0.00  0.00    -0.218 OA
ATOM     25  C2  IDS d 502     -14.097  56.168 172.201  0.00  0.00     0.229 C 
ATOM     26  C1  IDS d 502     -14.277  56.266 170.690  0.00  0.00     0.301 C 
ATOM     27  O1  IDS d 502     -13.662  57.450 170.257  0.00  0.00    -0.187 OA
ATOM     28  O5  IDS d 502     -15.634  56.200 170.331  0.00  0.00    -0.316 OA
ATOM     29  C5  IDS d 502     -16.448  57.204 170.903  0.00  0.00     0.234 C 
BRANCH  25  30
ATOM     30  O2  IDS d 502     -14.479  54.880 172.603  0.00  0.00    -0.232 OA
BRANCH  30  31
ATOM     31  S   IDS d 502     -13.810  53.978 173.692  0.00  0.00     0.252 S 
ATOM     32  O3S IDS d 502     -12.433  54.397 173.720  0.00  0.00    -0.572 OA
ATOM     33  O2S IDS d 502     -13.996  52.617 173.246  0.00  0.00    -0.572 OA
ATOM     34  O1S IDS d 502     -14.481  54.242 174.934  0.00  0.00    -0.572 OA
ENDBRANCH  30  31
ENDBRANCH  25  30
BRANCH  29  35
ATOM     35  C6  IDS d 502     -17.838  57.189 170.282  0.00  0.00     0.216 C 
ATOM     36  O61 IDS d 502     -18.661  58.024 170.568  0.00  0.00    -0.646 OA
ATOM     37  O62 IDS d 502     -18.155  56.335 169.476  0.00  0.00    -0.646 OA
ENDBRANCH  29  35
ENDBRANCH  21  22
ENDBRANCH  13  21
BRANCH  15  38
ATOM     38  C6  SGN d 503     -19.496  52.783 171.738  0.00  0.00     0.198 C 
BRANCH  38  39
ATOM     39  O6  SGN d 503     -20.743  53.394 171.486  0.00  0.00    -0.235 OA
BRANCH  39  40
ATOM     40  S2  SGN d 503     -21.485  53.402 170.124  0.00  0.00     0.252 S 
ATOM     41  O4S SGN d 503     -22.809  53.880 170.339  0.00  0.00    -0.572 OA
ATOM     42  O5S SGN d 503     -20.729  54.274 169.230  0.00  0.00    -0.572 OA
ATOM     43  O6S SGN d 503     -21.516  52.042 169.750  0.00  0.00    -0.572 OA
ENDBRANCH  39  40
ENDBRANCH  38  39
ENDBRANCH  15  38
ENDBRANCH   8   9
ENDBRANCH   5   8
BRANCH   1  44
ATOM     44  O2  IDS d 504     -15.559  51.479 176.292  0.00  0.00    -0.233 OA
BRANCH  44  45
ATOM     45  S   IDS d 504     -15.163  52.137 177.626  0.00  0.00     0.252 S 
ATOM     46  O3S IDS d 504     -15.720  51.276 178.601  0.00  0.00    -0.572 OA
ATOM     47  O2S IDS d 504     -15.691  53.470 177.626  0.00  0.00    -0.572 OA
ATOM     48  O1S IDS d 504     -13.746  52.136 177.667  0.00  0.00    -0.572 OA
ENDBRANCH  44  45
ENDBRANCH   1  44
BRANCH   4  49
ATOM     49  C6  IDS d 504     -16.411  49.943 171.689  0.00  0.00     0.216 C 
ATOM     50  O62 IDS d 504     -16.868  48.983 171.065  0.00  0.00    -0.646 OA
ATOM     51  O61 IDS d 504     -15.562  50.633 171.140  0.00  0.00    -0.646 OA
ENDBRANCH   4  49
BRANCH   7  52
ATOM     52  O4  IDS d 504     -14.956  49.397 174.315  0.00  0.00    -0.326 OA
BRANCH  52  53
ATOM     53  C1  SGN d 505     -14.318  48.185 174.612  0.00  0.00     0.263 C 
ATOM     54  C2  SGN d 505     -12.956  48.410 175.238  0.00  0.00     0.207 C 
ATOM     55  C3  SGN d 505     -11.990  49.056 174.226  0.00  0.00     0.210 C 
ATOM     56  C4  SGN d 505     -11.946  48.087 173.009  0.00  0.00     0.180 C 
ATOM     57  O3  SGN d 505     -10.707  49.158 174.829  0.00  0.00    -0.218 OA
ATOM     58  C5  SGN d 505     -13.345  47.985 172.493  0.00  0.00     0.179 C 
ATOM     59  O5  SGN d 505     -14.177  47.411 173.454  0.00  0.00    -0.327 OA
BRANCH  54  60
ATOM     60  N   SGN d 505     -13.120  49.144 176.515  0.00  0.00    -0.162 NA
BRANCH  60  61
ATOM     61  S1  SGN d 505     -13.587  48.260 177.860  0.00  0.00     0.227 S 
ATOM     62  O3S SGN d 505     -12.981  46.982 177.747  0.00  0.00    -0.577 OA
ATOM     63  O1S SGN d 505     -13.156  48.990 179.034  0.00  0.00    -0.577 OA
ATOM     64  O2S SGN d 505     -15.026  48.170 177.764  0.00  0.00    -0.577 OA
ENDBRANCH  60  61
ENDBRANCH  54  60
BRANCH  56  65
ATOM     65  O4  SGN d 505     -11.163  48.517 171.916  0.00  0.00    -0.326 OA
BRANCH  65  66
ATOM     66  C1  IDS d 506      -9.917  47.991 171.611  0.00  0.00     0.269 C 
ATOM     67  C2  IDS d 506      -8.835  48.875 172.250  0.00  0.00     0.226 C 
ATOM     68  C3  IDS d 506      -7.408  48.590 171.707  0.00  0.00     0.219 C 
ATOM     69  O3  IDS d 506      -6.867  47.478 172.416  0.00  0.00    -0.218 OA
ATOM     70  C4  IDS d 506      -7.370  48.274 170.196  0.00  0.00     0.223 C 
ATOM     71  O4  IDS d 506      -7.400  49.505 169.511  0.00  0.00    -0.217 OA
ATOM     72  C5  IDS d 506      -8.578  47.425 169.789  0.00  0.00     0.237 C 
ATOM     73  O5  IDS d 506      -9.753  48.031 170.216  0.00  0.00    -0.318 OA
BRANCH  67  74
ATOM     74  O2  IDS d 506      -9.107  50.239 171.992  0.00  0.00    -0.233 OA
BRANCH  74  75
ATOM     75  S   IDS d 506      -8.669  51.507 172.843  0.00  0.00     0.252 S 
ATOM     76  O1S IDS d 506      -7.943  50.976 173.955  0.00  0.00    -0.572 OA
ATOM     77  O2S IDS d 506      -7.825  52.327 172.020  0.00  0.00    -0.572 OA
ATOM     78  O3S IDS d 506      -9.902  52.161 173.227  0.00  0.00    -0.572 OA
ENDBRANCH  74  75
ENDBRANCH  67  74
BRANCH  72  79
ATOM     79  C6  IDS d 506      -8.698  47.077 168.317  0.00  0.00     0.217 C 
ATOM     80  O61 IDS d 506      -8.064  46.138 167.857  0.00  0.00    -0.646 OA
ATOM     81  O62 IDS d 506      -9.403  47.718 167.556  0.00  0.00    -0.646 OA
ENDBRANCH  72  79
ENDBRANCH  65  66
ENDBRANCH  56  65
BRANCH  58  82
ATOM     82  C6  SGN d 505     -13.454  47.124 171.277  0.00  0.00     0.198 C 
BRANCH  82  83
ATOM     83  O6  SGN d 505     -13.723  48.000 170.236  0.00  0.00    -0.235 OA
BRANCH  83  84
ATOM     84  S2  SGN d 505     -13.727  47.686 168.747  0.00  0.00     0.252 S 
ATOM     85  O6S SGN d 505     -12.481  48.207 168.201  0.00  0.00    -0.572 OA
ATOM     86  O4S SGN d 505     -13.809  46.245 168.675  0.00  0.00    -0.572 OA
ATOM     87  O5S SGN d 505     -14.885  48.377 168.235  0.00  0.00    -0.572 OA
ENDBRANCH  83  84
ENDBRANCH  82  83
ENDBRANCH  58  82
ENDBRANCH  52  53
ENDBRANCH   7  52
TORSDOF 27

ENDMDL
