MODEL 1
REMARK VINA RESULT:      -4.7      0.000      0.000
REMARK  14 active torsions:
REMARK  status: ('A' for Active; 'I' for Inactive)
REMARK    1  A    between atoms: C5_1  and  C6_23 
REMARK    2  A    between atoms: S2_5  and  O6_7 
REMARK    3  A    between atoms: O1_6  and  C1_35 
REMARK    4  A    between atoms: O6_7  and  C6_21 
REMARK    5  A    between atoms: O2_9  and  C2_28 
REMARK    6  A    between atoms: O2_9  and  S_13 
REMARK    7  A    between atoms: C3_10  and  O3_20 
REMARK    8  A    between atoms: C1_11  and  O4_12 
REMARK    9  A    between atoms: O4_12  and  C4_19 
REMARK   10  A    between atoms: C2_15  and  N_29 
REMARK   11  A    between atoms: C5_17  and  C6_21 
REMARK   12  A    between atoms: C6_23  and  O61_33 
REMARK   13  A    between atoms: O3_24  and  C3_26 
REMARK   14  A    between atoms: S1_27  and  N_29 
ROOT
ATOM      1  O5  SGN d5702      61.073  39.581  37.382  0.00  0.00    -0.350 OA
ATOM      2  C2  SGN d5702      63.134  38.459  37.890  0.00  0.00     0.160 C 
ATOM      3  C5  SGN d5702      61.717  40.598  36.654  0.00  0.00     0.181 C 
ATOM      4  C4  SGN d5702      63.024  40.040  36.056  0.00  0.00     0.186 C 
ATOM      5  C3  SGN d5702      63.916  39.566  37.235  0.00  0.00     0.173 C 
ATOM      6  C1  SGN d5702      61.827  38.993  38.446  0.00  0.00     0.278 C 
ENDROOT
BRANCH   4   7
ATOM      7  O4  SGN d5702      63.628  41.132  35.309  0.00  0.00    -0.348 OA
BRANCH   7   8
ATOM      8  C1  IDU d1623      64.549  41.010  34.245  0.00  0.00     0.294 C 
ATOM      9  O5  IDU d1623      63.954  40.489  33.013  0.00  0.00    -0.343 OA
ATOM     10  C5  IDU d1623      64.930  40.237  31.940  0.00  0.00     0.224 C 
ATOM     11  C4  IDU d1623      65.616  41.563  31.573  0.00  0.00     0.077 C 
ATOM     12  C3  IDU d1623      66.281  42.164  32.821  0.00  0.00     0.156 C 
ATOM     13  C2  IDU d1623      65.190  42.360  33.885  0.00  0.00     0.228 C 
BRANCH  10  14
ATOM     14  C6  IDU d1623      64.262  39.695  30.706  0.00  0.00     0.170 C 
ATOM     15  O62 IDU d1623      63.605  40.479  30.003  0.00  0.00    -0.648 OA
BRANCH  14  16
ATOM     16  O61 IDU d1623      64.404  38.481  30.455  0.00  0.00    -0.774 OA
ENDBRANCH  14  16
ENDBRANCH  10  14
BRANCH  12  18
ATOM     18  O3  IDU d1623      67.263  41.285  33.296  0.00  0.00    -0.393 OA
ATOM     19  H   IDU d1623      66.868  40.413  33.452  0.00  0.00     0.210 HD
ENDBRANCH  12  18
BRANCH  13  20
ATOM     20  O2  IDU d1623      64.173  43.191  33.378  0.00  0.00    -0.244 OA
BRANCH  20  21
ATOM     21  S   IDU d1623      64.325  44.901  33.605  0.00  0.00     0.252 S 
ATOM     22  O3S IDU d1623      64.395  45.218  34.982  0.00  0.00    -0.572 OA
ATOM     23  O1S IDU d1623      63.216  45.507  32.931  0.00  0.00    -0.572 OA
ATOM     24  O2S IDU d1623      65.563  45.392  33.018  0.00  0.00    -0.572 OA
ENDBRANCH  20  21
ENDBRANCH  13  20
ENDBRANCH   7   8
ENDBRANCH   4   7
BRANCH   3  25
ATOM     25  C6  SGN d5702      60.763  41.058  35.597  0.00  0.00     0.227 C 
BRANCH  25  26
ATOM     26  O6  SGN d5702      59.984  42.041  36.263  0.00  0.00    -0.254 OA
BRANCH  26  27
ATOM     27  S2  SGN d5702      60.591  43.659  36.352  0.00  0.00     0.251 S 
ATOM     28  O4S SGN d5702      61.471  43.823  37.464  0.00  0.00    -0.572 OA
ATOM     29  O5S SGN d5702      59.479  44.555  36.495  0.00  0.00    -0.572 OA
ATOM     30  O6S SGN d5702      61.322  43.855  35.135  0.00  0.00    -0.572 OA
ENDBRANCH  26  27
ENDBRANCH  25  26
ENDBRANCH   3  25
BRANCH   5  31
ATOM     31  O3  SGN d5702      65.120  39.034  36.740  0.00  0.00    -0.391 OA
ATOM     32  H   SGN d5702      65.310  38.194  37.186  0.00  0.00     0.210 HD
ENDBRANCH   5  31
BRANCH   2  33
ATOM     33  N   SGN d5702      63.871  37.910  38.980  0.00  0.00    -0.189 NA
ATOM     34  H   SGN d5702      63.324  38.015  39.835  0.00  0.00     0.143 HD
BRANCH  33  35
ATOM     35  S1  SGN d5702      64.231  36.197  38.740  0.00  0.00     0.183 S 
ATOM     36  O1S SGN d5702      63.105  35.421  39.220  0.00  0.00    -0.582 OA
ATOM     37  O2S SGN d5702      65.363  35.850  39.534  0.00  0.00    -0.582 OA
ATOM     38  O3S SGN d5702      64.474  36.056  37.317  0.00  0.00    -0.582 OA
ENDBRANCH  33  35
ENDBRANCH   2  33
BRANCH   6  39
ATOM     39  O1  SGN d5702      62.020  39.921  39.487  0.00  0.00    -0.369 OA
ATOM     40  H   SGN d5702      62.220  39.447  40.310  0.00  0.00     0.212 HD
ENDBRANCH   6  39
TORSDOF 14
ENDMDL
MODEL 2
REMARK VINA RESULT:      -3.9      3.841      7.992
REMARK  14 active torsions:
REMARK  status: ('A' for Active; 'I' for Inactive)
REMARK    1  A    between atoms: C5_1  and  C6_23 
REMARK    2  A    between atoms: S2_5  and  O6_7 
REMARK    3  A    between atoms: O1_6  and  C1_35 
REMARK    4  A    between atoms: O6_7  and  C6_21 
REMARK    5  A    between atoms: O2_9  and  C2_28 
REMARK    6  A    between atoms: O2_9  and  S_13 
REMARK    7  A    between atoms: C3_10  and  O3_20 
REMARK    8  A    between atoms: C1_11  and  O4_12 
REMARK    9  A    between atoms: O4_12  and  C4_19 
REMARK   10  A    between atoms: C2_15  and  N_29 
REMARK   11  A    between atoms: C5_17  and  C6_21 
REMARK   12  A    between atoms: C6_23  and  O61_33 
REMARK   13  A    between atoms: O3_24  and  C3_26 
REMARK   14  A    between atoms: S1_27  and  N_29 
ROOT
ATOM      1  O5  SGN d5702      63.543  42.257  33.416  0.00  0.00    -0.350 OA
ATOM      2  C2  SGN d5702      64.649  44.243  32.644  0.00  0.00     0.160 C 
ATOM      3  C5  SGN d5702      64.123  42.338  34.695  0.00  0.00     0.181 C 
ATOM      4  C4  SGN d5702      64.425  43.815  35.020  0.00  0.00     0.186 C 
ATOM      5  C3  SGN d5702      65.409  44.342  33.941  0.00  0.00     0.173 C 
ATOM      6  C1  SGN d5702      64.314  42.795  32.338  0.00  0.00     0.278 C 
ENDROOT
BRANCH   4   7
ATOM      7  O4  SGN d5702      65.005  43.827  36.353  0.00  0.00    -0.348 OA
BRANCH   7   8
ATOM      8  C1  IDU d1623      64.630  44.671  37.422  0.00  0.00     0.294 C 
ATOM      9  O5  IDU d1623      63.225  44.532  37.810  0.00  0.00    -0.343 OA
ATOM     10  C5  IDU d1623      62.793  45.497  38.835  0.00  0.00     0.224 C 
ATOM     11  C4  IDU d1623      63.626  45.275  40.107  0.00  0.00     0.077 C 
ATOM     12  C3  IDU d1623      65.120  45.422  39.778  0.00  0.00     0.156 C 
ATOM     13  C2  IDU d1623      65.462  44.398  38.685  0.00  0.00     0.228 C 
BRANCH  10  14
ATOM     14  C6  IDU d1623      61.341  45.312  39.184  0.00  0.00     0.170 C 
ATOM     15  O62 IDU d1623      61.040  45.175  40.380  0.00  0.00    -0.648 OA
BRANCH  14  16
ATOM     16  O61 IDU d1623      60.515  45.307  38.249  0.00  0.00    -0.774 OA
ENDBRANCH  14  16
ENDBRANCH  10  14
BRANCH  12  18
ATOM     18  O3  IDU d1623      65.371  46.721  39.317  0.00  0.00    -0.393 OA
ATOM     19  H   IDU d1623      66.225  47.026  39.661  0.00  0.00     0.210 HD
ENDBRANCH  12  18
BRANCH  13  20
ATOM     20  O2  IDU d1623      65.145  43.101  39.131  0.00  0.00    -0.244 OA
BRANCH  20  21
ATOM     21  S   IDU d1623      66.384  41.891  39.074  0.00  0.00     0.252 S 
ATOM     22  O3S IDU d1623      66.163  40.903  40.062  0.00  0.00    -0.572 OA
ATOM     23  O1S IDU d1623      67.635  42.575  39.215  0.00  0.00    -0.572 OA
ATOM     24  O2S IDU d1623      66.366  41.193  37.798  0.00  0.00    -0.572 OA
ENDBRANCH  20  21
ENDBRANCH  13  20
ENDBRANCH   7   8
ENDBRANCH   4   7
BRANCH   3  25
ATOM     25  C6  SGN d5702      63.152  41.734  35.660  0.00  0.00     0.227 C 
BRANCH  25  26
ATOM     26  O6  SGN d5702      62.230  41.058  34.819  0.00  0.00    -0.254 OA
BRANCH  26  27
ATOM     27  S2  SGN d5702      60.658  40.686  35.441  0.00  0.00     0.251 S 
ATOM     28  O4S SGN d5702      59.881  41.868  35.630  0.00  0.00    -0.572 OA
ATOM     29  O5S SGN d5702      60.815  40.019  36.702  0.00  0.00    -0.572 OA
ATOM     30  O6S SGN d5702      60.041  39.865  34.441  0.00  0.00    -0.572 OA
ENDBRANCH  26  27
ENDBRANCH  25  26
ENDBRANCH   3  25
BRANCH   5  31
ATOM     31  O3  SGN d5702      65.706  45.695  34.186  0.00  0.00    -0.391 OA
ATOM     32  H   SGN d5702      66.652  45.850  34.038  0.00  0.00     0.210 HD
ENDBRANCH   5  31
BRANCH   2  33
ATOM     33  N   SGN d5702      65.443  44.736  31.567  0.00  0.00    -0.189 NA
ATOM     34  H   SGN d5702      65.481  44.027  30.834  0.00  0.00     0.143 HD
BRANCH  33  35
ATOM     35  S1  SGN d5702      64.781  46.225  30.886  0.00  0.00     0.183 S 
ATOM     36  O1S SGN d5702      64.070  46.932  31.933  0.00  0.00    -0.582 OA
ATOM     37  O2S SGN d5702      63.833  45.887  29.876  0.00  0.00    -0.582 OA
ATOM     38  O3S SGN d5702      65.927  46.948  30.367  0.00  0.00    -0.582 OA
ENDBRANCH  33  35
ENDBRANCH   2  33
BRANCH   6  39
ATOM     39  O1  SGN d5702      65.459  42.010  32.110  0.00  0.00    -0.369 OA
ATOM     40  H   SGN d5702      65.411  41.204  32.649  0.00  0.00     0.212 HD
ENDBRANCH   6  39
TORSDOF 14
ENDMDL
MODEL 3
REMARK VINA RESULT:      -3.7      2.831      4.279
REMARK  14 active torsions:
REMARK  status: ('A' for Active; 'I' for Inactive)
REMARK    1  A    between atoms: C5_1  and  C6_23 
REMARK    2  A    between atoms: S2_5  and  O6_7 
REMARK    3  A    between atoms: O1_6  and  C1_35 
REMARK    4  A    between atoms: O6_7  and  C6_21 
REMARK    5  A    between atoms: O2_9  and  C2_28 
REMARK    6  A    between atoms: O2_9  and  S_13 
REMARK    7  A    between atoms: C3_10  and  O3_20 
REMARK    8  A    between atoms: C1_11  and  O4_12 
REMARK    9  A    between atoms: O4_12  and  C4_19 
REMARK   10  A    between atoms: C2_15  and  N_29 
REMARK   11  A    between atoms: C5_17  and  C6_21 
REMARK   12  A    between atoms: C6_23  and  O61_33 
REMARK   13  A    between atoms: O3_24  and  C3_26 
REMARK   14  A    between atoms: S1_27  and  N_29 
ROOT
ATOM      1  O5  SGN d5702      62.069  38.121  39.335  0.00  0.00    -0.350 OA
ATOM      2  C2  SGN d5702      63.378  38.647  41.278  0.00  0.00     0.160 C 
ATOM      3  C5  SGN d5702      62.116  39.442  38.851  0.00  0.00     0.181 C 
ATOM      4  C4  SGN d5702      63.411  40.115  39.349  0.00  0.00     0.186 C 
ATOM      5  C3  SGN d5702      63.379  40.105  40.901  0.00  0.00     0.173 C 
ATOM      6  C1  SGN d5702      62.125  37.968  40.756  0.00  0.00     0.278 C 
ENDROOT
BRANCH   4   7
ATOM      7  O4  SGN d5702      63.404  41.463  38.803  0.00  0.00    -0.348 OA
BRANCH   7   8
ATOM      8  C1  IDU d1623      64.455  42.084  38.093  0.00  0.00     0.294 C 
ATOM      9  O5  IDU d1623      64.646  41.546  36.744  0.00  0.00    -0.343 OA
ATOM     10  C5  IDU d1623      65.817  42.097  36.044  0.00  0.00     0.224 C 
ATOM     11  C4  IDU d1623      65.635  43.616  35.892  0.00  0.00     0.077 C 
ATOM     12  C3  IDU d1623      65.445  44.255  37.276  0.00  0.00     0.156 C 
ATOM     13  C2  IDU d1623      64.222  43.595  37.932  0.00  0.00     0.228 C 
BRANCH  10  14
ATOM     14  C6  IDU d1623      65.967  41.501  34.671  0.00  0.00     0.170 C 
ATOM     15  O62 IDU d1623      65.975  40.264  34.567  0.00  0.00    -0.648 OA
BRANCH  14  16
ATOM     16  O61 IDU d1623      66.077  42.285  33.706  0.00  0.00    -0.774 OA
ENDBRANCH  14  16
ENDBRANCH  10  14
BRANCH  12  18
ATOM     18  O3  IDU d1623      66.587  44.031  38.055  0.00  0.00    -0.393 OA
ATOM     19  H   IDU d1623      66.367  44.150  38.993  0.00  0.00     0.210 HD
ENDBRANCH  12  18
BRANCH  13  20
ATOM     20  O2  IDU d1623      63.091  43.766  37.112  0.00  0.00    -0.244 OA
BRANCH  20  21
ATOM     21  S   IDU d1623      61.983  45.040  37.501  0.00  0.00     0.252 S 
ATOM     22  O3S IDU d1623      62.476  46.287  37.048  0.00  0.00    -0.572 OA
ATOM     23  O1S IDU d1623      61.774  44.986  38.917  0.00  0.00    -0.572 OA
ATOM     24  O2S IDU d1623      60.710  44.843  36.825  0.00  0.00    -0.572 OA
ENDBRANCH  20  21
ENDBRANCH  13  20
ENDBRANCH   7   8
ENDBRANCH   4   7
BRANCH   3  25
ATOM     25  C6  SGN d5702      62.056  39.367  37.357  0.00  0.00     0.227 C 
BRANCH  25  26
ATOM     26  O6  SGN d5702      60.924  40.161  37.034  0.00  0.00    -0.254 OA
BRANCH  26  27
ATOM     27  S2  SGN d5702      60.744  40.725  35.408  0.00  0.00     0.251 S 
ATOM     28  O4S SGN d5702      62.012  40.930  34.786  0.00  0.00    -0.572 OA
ATOM     29  O5S SGN d5702      60.026  41.968  35.435  0.00  0.00    -0.572 OA
ATOM     30  O6S SGN d5702      60.041  39.681  34.722  0.00  0.00    -0.572 OA
ENDBRANCH  26  27
ENDBRANCH  25  26
ENDBRANCH   3  25
BRANCH   5  31
ATOM     31  O3  SGN d5702      64.549  40.699  41.407  0.00  0.00    -0.391 OA
ATOM     32  H   SGN d5702      64.341  41.181  42.223  0.00  0.00     0.210 HD
ENDBRANCH   5  31
BRANCH   2  33
ATOM     33  N   SGN d5702      63.384  38.503  42.696  0.00  0.00    -0.189 NA
ATOM     34  H   SGN d5702      62.521  38.042  42.985  0.00  0.00     0.143 HD
BRANCH  33  35
ATOM     35  S1  SGN d5702      64.757  37.543  43.257  0.00  0.00     0.183 S 
ATOM     36  O1S SGN d5702      65.480  37.056  42.099  0.00  0.00    -0.582 OA
ATOM     37  O2S SGN d5702      64.265  36.407  43.965  0.00  0.00    -0.582 OA
ATOM     38  O3S SGN d5702      65.531  38.440  44.094  0.00  0.00    -0.582 OA
ENDBRANCH  33  35
ENDBRANCH   2  33
BRANCH   6  39
ATOM     39  O1  SGN d5702      60.950  38.464  41.353  0.00  0.00    -0.369 OA
ATOM     40  H   SGN d5702      60.508  37.750  41.838  0.00  0.00     0.212 HD
ENDBRANCH   6  39
TORSDOF 14
ENDMDL
MODEL 4
REMARK VINA RESULT:      -3.5      2.853      7.742
REMARK  14 active torsions:
REMARK  status: ('A' for Active; 'I' for Inactive)
REMARK    1  A    between atoms: C5_1  and  C6_23 
REMARK    2  A    between atoms: S2_5  and  O6_7 
REMARK    3  A    between atoms: O1_6  and  C1_35 
REMARK    4  A    between atoms: O6_7  and  C6_21 
REMARK    5  A    between atoms: O2_9  and  C2_28 
REMARK    6  A    between atoms: O2_9  and  S_13 
REMARK    7  A    between atoms: C3_10  and  O3_20 
REMARK    8  A    between atoms: C1_11  and  O4_12 
REMARK    9  A    between atoms: O4_12  and  C4_19 
REMARK   10  A    between atoms: C2_15  and  N_29 
REMARK   11  A    between atoms: C5_17  and  C6_21 
REMARK   12  A    between atoms: C6_23  and  O61_33 
REMARK   13  A    between atoms: O3_24  and  C3_26 
REMARK   14  A    between atoms: S1_27  and  N_29 
ROOT
ATOM      1  O5  SGN d5702      61.284  40.510  37.247  0.00  0.00    -0.350 OA
ATOM      2  C2  SGN d5702      62.715  41.624  35.674  0.00  0.00     0.160 C 
ATOM      3  C5  SGN d5702      62.123  39.383  37.329  0.00  0.00     0.181 C 
ATOM      4  C4  SGN d5702      63.574  39.813  37.037  0.00  0.00     0.186 C 
ATOM      5  C3  SGN d5702      63.608  40.413  35.606  0.00  0.00     0.173 C 
ATOM      6  C1  SGN d5702      61.292  41.213  36.001  0.00  0.00     0.278 C 
ENDROOT
BRANCH   4   7
ATOM      7  O4  SGN d5702      64.385  38.611  37.154  0.00  0.00    -0.348 OA
BRANCH   7   8
ATOM      8  C1  IDU d1623      65.655  38.514  37.765  0.00  0.00     0.294 C 
ATOM      9  O5  IDU d1623      65.660  38.925  39.170  0.00  0.00    -0.343 OA
ATOM     10  C5  IDU d1623      67.000  38.949  39.778  0.00  0.00     0.224 C 
ATOM     11  C4  IDU d1623      67.591  37.530  39.731  0.00  0.00     0.077 C 
ATOM     12  C3  IDU d1623      67.633  37.036  38.277  0.00  0.00     0.156 C 
ATOM     13  C2  IDU d1623      66.198  37.076  37.727  0.00  0.00     0.228 C 
BRANCH  10  14
ATOM     14  C6  IDU d1623      66.943  39.387  41.217  0.00  0.00     0.170 C 
ATOM     15  O62 IDU d1623      66.667  38.538  42.077  0.00  0.00    -0.648 OA
BRANCH  14  16
ATOM     16  O61 IDU d1623      67.175  40.588  41.467  0.00  0.00    -0.774 OA
ENDBRANCH  14  16
ENDBRANCH  10  14
BRANCH  12  18
ATOM     18  O3  IDU d1623      68.461  37.876  37.521  0.00  0.00    -0.393 OA
ATOM     19  H   IDU d1623      68.076  38.002  36.640  0.00  0.00     0.210 HD
ENDBRANCH  12  18
BRANCH  13  20
ATOM     20  O2  IDU d1623      65.358  36.283  38.531  0.00  0.00    -0.244 OA
BRANCH  20  21
ATOM     21  S   IDU d1623      64.573  34.923  37.798  0.00  0.00     0.252 S 
ATOM     22  O3S IDU d1623      65.222  33.718  38.158  0.00  0.00    -0.572 OA
ATOM     23  O1S IDU d1623      64.556  35.167  36.388  0.00  0.00    -0.572 OA
ATOM     24  O2S IDU d1623      63.204  34.798  38.275  0.00  0.00    -0.572 OA
ENDBRANCH  20  21
ENDBRANCH  13  20
ENDBRANCH   7   8
ENDBRANCH   4   7
BRANCH   3  25
ATOM     25  C6  SGN d5702      61.967  38.816  38.705  0.00  0.00     0.227 C 
BRANCH  25  26
ATOM     26  O6  SGN d5702      62.492  39.836  39.543  0.00  0.00    -0.254 OA
BRANCH  26  27
ATOM     27  S2  SGN d5702      62.752  39.481  41.217  0.00  0.00     0.251 S 
ATOM     28  O4S SGN d5702      61.522  39.452  41.939  0.00  0.00    -0.572 OA
ATOM     29  O5S SGN d5702      63.600  40.499  41.770  0.00  0.00    -0.572 OA
ATOM     30  O6S SGN d5702      63.348  38.177  41.238  0.00  0.00    -0.572 OA
ENDBRANCH  26  27
ENDBRANCH  25  26
ENDBRANCH   3  25
BRANCH   5  31
ATOM     31  O3  SGN d5702      64.914  40.835  35.295  0.00  0.00    -0.391 OA
ATOM     32  H   SGN d5702      65.112  41.654  35.774  0.00  0.00     0.210 HD
ENDBRANCH   5  31
BRANCH   2  33
ATOM     33  N   SGN d5702      62.690  42.291  34.414  0.00  0.00    -0.189 NA
ATOM     34  H   SGN d5702      61.727  42.322  34.077  0.00  0.00     0.143 HD
BRANCH  33  35
ATOM     35  S1  SGN d5702      63.308  43.942  34.528  0.00  0.00     0.183 S 
ATOM     36  O1S SGN d5702      62.956  44.649  33.313  0.00  0.00    -0.582 OA
ATOM     37  O2S SGN d5702      64.732  43.895  34.600  0.00  0.00    -0.582 OA
ATOM     38  O3S SGN d5702      62.700  44.494  35.723  0.00  0.00    -0.582 OA
ENDBRANCH  33  35
ENDBRANCH   2  33
BRANCH   6  39
ATOM     39  O1  SGN d5702      60.708  40.428  34.988  0.00  0.00    -0.369 OA
ATOM     40  H   SGN d5702      59.748  40.565  34.987  0.00  0.00     0.212 HD
ENDBRANCH   6  39
TORSDOF 14
ENDMDL
MODEL 5
REMARK VINA RESULT:      -3.2      3.329      7.156
REMARK  14 active torsions:
REMARK  status: ('A' for Active; 'I' for Inactive)
REMARK    1  A    between atoms: C5_1  and  C6_23 
REMARK    2  A    between atoms: S2_5  and  O6_7 
REMARK    3  A    between atoms: O1_6  and  C1_35 
REMARK    4  A    between atoms: O6_7  and  C6_21 
REMARK    5  A    between atoms: O2_9  and  C2_28 
REMARK    6  A    between atoms: O2_9  and  S_13 
REMARK    7  A    between atoms: C3_10  and  O3_20 
REMARK    8  A    between atoms: C1_11  and  O4_12 
REMARK    9  A    between atoms: O4_12  and  C4_19 
REMARK   10  A    between atoms: C2_15  and  N_29 
REMARK   11  A    between atoms: C5_17  and  C6_21 
REMARK   12  A    between atoms: C6_23  and  O61_33 
REMARK   13  A    between atoms: O3_24  and  C3_26 
REMARK   14  A    between atoms: S1_27  and  N_29 
ROOT
ATOM      1  O5  SGN d5702      63.125  41.290  36.768  0.00  0.00    -0.350 OA
ATOM      2  C2  SGN d5702      63.622  42.677  34.872  0.00  0.00     0.160 C 
ATOM      3  C5  SGN d5702      63.620  40.129  36.146  0.00  0.00     0.181 C 
ATOM      4  C4  SGN d5702      64.712  40.527  35.132  0.00  0.00     0.186 C 
ATOM      5  C3  SGN d5702      64.060  41.470  34.085  0.00  0.00     0.173 C 
ATOM      6  C1  SGN d5702      62.576  42.286  35.900  0.00  0.00     0.278 C 
ENDROOT
BRANCH   4   7
ATOM      7  O4  SGN d5702      65.189  39.287  34.541  0.00  0.00    -0.348 OA
BRANCH   7   8
ATOM      8  C1  IDU d1623      66.537  38.927  34.322  0.00  0.00     0.294 C 
ATOM      9  O5  IDU d1623      67.289  38.700  35.558  0.00  0.00    -0.343 OA
ATOM     10  C5  IDU d1623      68.724  38.451  35.345  0.00  0.00     0.224 C 
ATOM     11  C4  IDU d1623      68.885  37.183  34.491  0.00  0.00     0.077 C 
ATOM     12  C3  IDU d1623      68.132  37.356  33.163  0.00  0.00     0.156 C 
ATOM     13  C2  IDU d1623      66.658  37.639  33.493  0.00  0.00     0.228 C 
BRANCH  10  14
ATOM     14  C6  IDU d1623      69.443  38.236  36.649  0.00  0.00     0.170 C 
ATOM     15  O62 IDU d1623      69.798  39.234  37.294  0.00  0.00    -0.648 OA
BRANCH  14  16
ATOM     16  O61 IDU d1623      69.647  37.059  37.012  0.00  0.00    -0.774 OA
ENDBRANCH  14  16
ENDBRANCH  10  14
BRANCH  12  18
ATOM     18  O3  IDU d1623      68.680  38.430  32.451  0.00  0.00    -0.393 OA
ATOM     19  H   IDU d1623      68.454  38.344  31.511  0.00  0.00     0.210 HD
ENDBRANCH  12  18
BRANCH  13  20
ATOM     20  O2  IDU d1623      66.132  36.585  34.266  0.00  0.00    -0.244 OA
BRANCH  20  21
ATOM     21  S   IDU d1623      65.575  35.167  33.442  0.00  0.00     0.252 S 
ATOM     22  O3S IDU d1623      66.621  34.223  33.309  0.00  0.00    -0.572 OA
ATOM     23  O1S IDU d1623      65.032  35.603  32.191  0.00  0.00    -0.572 OA
ATOM     24  O2S IDU d1623      64.530  34.502  34.207  0.00  0.00    -0.572 OA
ENDBRANCH  20  21
ENDBRANCH  13  20
ENDBRANCH   7   8
ENDBRANCH   4   7
BRANCH   3  25
ATOM     25  C6  SGN d5702      64.150  39.240  37.227  0.00  0.00     0.227 C 
BRANCH  25  26
ATOM     26  O6  SGN d5702      63.025  38.451  37.584  0.00  0.00    -0.254 OA
BRANCH  26  27
ATOM     27  S2  SGN d5702      62.833  37.982  39.239  0.00  0.00     0.251 S 
ATOM     28  O4S SGN d5702      64.084  37.973  39.925  0.00  0.00    -0.572 OA
ATOM     29  O5S SGN d5702      62.267  36.663  39.274  0.00  0.00    -0.572 OA
ATOM     30  O6S SGN d5702      61.980  38.979  39.817  0.00  0.00    -0.572 OA
ENDBRANCH  26  27
ENDBRANCH  25  26
ENDBRANCH   3  25
BRANCH   5  31
ATOM     31  O3  SGN d5702      65.022  41.874  33.141  0.00  0.00    -0.391 OA
ATOM     32  H   SGN d5702      65.091  41.204  32.443  0.00  0.00     0.210 HD
ENDBRANCH   5  31
BRANCH   2  33
ATOM     33  N   SGN d5702      63.032  43.644  34.007  0.00  0.00    -0.189 NA
ATOM     34  H   SGN d5702      62.096  43.864  34.348  0.00  0.00     0.143 HD
BRANCH  33  35
ATOM     35  S1  SGN d5702      63.978  45.134  33.938  0.00  0.00     0.183 S 
ATOM     36  O1S SGN d5702      63.547  45.898  32.784  0.00  0.00    -0.582 OA
ATOM     37  O2S SGN d5702      65.350  44.798  33.742  0.00  0.00    -0.582 OA
ATOM     38  O3S SGN d5702      63.734  45.798  35.204  0.00  0.00    -0.582 OA
ENDBRANCH  33  35
ENDBRANCH   2  33
BRANCH   6  39
ATOM     39  O1  SGN d5702      61.384  41.824  35.311  0.00  0.00    -0.369 OA
ATOM     40  H   SGN d5702      60.874  41.322  35.966  0.00  0.00     0.212 HD
ENDBRANCH   6  39
TORSDOF 14
ENDMDL
MODEL 6
REMARK VINA RESULT:      -3.0      4.432      8.524
REMARK  14 active torsions:
REMARK  status: ('A' for Active; 'I' for Inactive)
REMARK    1  A    between atoms: C5_1  and  C6_23 
REMARK    2  A    between atoms: S2_5  and  O6_7 
REMARK    3  A    between atoms: O1_6  and  C1_35 
REMARK    4  A    between atoms: O6_7  and  C6_21 
REMARK    5  A    between atoms: O2_9  and  C2_28 
REMARK    6  A    between atoms: O2_9  and  S_13 
REMARK    7  A    between atoms: C3_10  and  O3_20 
REMARK    8  A    between atoms: C1_11  and  O4_12 
REMARK    9  A    between atoms: O4_12  and  C4_19 
REMARK   10  A    between atoms: C2_15  and  N_29 
REMARK   11  A    between atoms: C5_17  and  C6_21 
REMARK   12  A    between atoms: C6_23  and  O61_33 
REMARK   13  A    between atoms: O3_24  and  C3_26 
REMARK   14  A    between atoms: S1_27  and  N_29 
ROOT
ATOM      1  O5  SGN d5702      63.100  41.464  36.230  0.00  0.00    -0.350 OA
ATOM      2  C2  SGN d5702      64.015  43.419  35.181  0.00  0.00     0.160 C 
ATOM      3  C5  SGN d5702      63.612  41.808  37.495  0.00  0.00     0.181 C 
ATOM      4  C4  SGN d5702      63.735  43.342  37.588  0.00  0.00     0.186 C 
ATOM      5  C3  SGN d5702      64.701  43.805  36.465  0.00  0.00     0.173 C 
ATOM      6  C1  SGN d5702      63.854  41.913  35.101  0.00  0.00     0.278 C 
ENDROOT
BRANCH   4   7
ATOM      7  O4  SGN d5702      64.251  43.629  38.917  0.00  0.00    -0.348 OA
BRANCH   7   8
ATOM      8  C1  IDU d1623      63.880  44.712  39.744  0.00  0.00     0.294 C 
ATOM      9  O5  IDU d1623      62.460  44.715  40.101  0.00  0.00    -0.343 OA
ATOM     10  C5  IDU d1623      62.038  45.907  40.855  0.00  0.00     0.224 C 
ATOM     11  C4  IDU d1623      62.826  45.964  42.174  0.00  0.00     0.077 C 
ATOM     12  C3  IDU d1623      64.333  45.981  41.875  0.00  0.00     0.156 C 
ATOM     13  C2  IDU d1623      64.664  44.717  41.066  0.00  0.00     0.228 C 
BRANCH  10  14
ATOM     14  C6  IDU d1623      60.571  45.858  41.184  0.00  0.00     0.170 C 
ATOM     15  O62 IDU d1623      59.814  46.651  40.603  0.00  0.00    -0.648 OA
BRANCH  14  16
ATOM     16  O61 IDU d1623      60.193  45.020  42.028  0.00  0.00    -0.774 OA
ENDBRANCH  14  16
ENDBRANCH  10  14
BRANCH  12  18
ATOM     18  O3  IDU d1623      64.650  47.125  41.132  0.00  0.00    -0.393 OA
ATOM     19  H   IDU d1623      64.571  46.928  40.186  0.00  0.00     0.210 HD
ENDBRANCH  12  18
BRANCH  13  20
ATOM     20  O2  IDU d1623      64.282  43.573  41.791  0.00  0.00    -0.244 OA
BRANCH  20  21
ATOM     21  S   IDU d1623      65.521  42.465  42.282  0.00  0.00     0.252 S 
ATOM     22  O3S IDU d1623      65.376  41.226  41.613  0.00  0.00    -0.572 OA
ATOM     23  O1S IDU d1623      65.440  42.361  43.708  0.00  0.00    -0.572 OA
ATOM     24  O2S IDU d1623      66.837  42.966  41.916  0.00  0.00    -0.572 OA
ENDBRANCH  20  21
ENDBRANCH  13  20
ENDBRANCH   7   8
ENDBRANCH   4   7
BRANCH   3  25
ATOM     25  C6  SGN d5702      62.671  41.253  38.518  0.00  0.00     0.227 C 
BRANCH  25  26
ATOM     26  O6  SGN d5702      62.141  40.098  37.886  0.00  0.00    -0.254 OA
BRANCH  26  27
ATOM     27  S2  SGN d5702      62.725  38.544  38.375  0.00  0.00     0.251 S 
ATOM     28  O4S SGN d5702      61.775  37.518  38.089  0.00  0.00    -0.572 OA
ATOM     29  O5S SGN d5702      62.972  38.576  39.789  0.00  0.00    -0.572 OA
ATOM     30  O6S SGN d5702      63.910  38.324  37.599  0.00  0.00    -0.572 OA
ENDBRANCH  26  27
ENDBRANCH  25  26
ENDBRANCH   3  25
BRANCH   5  31
ATOM     31  O3  SGN d5702      64.838  45.205  36.498  0.00  0.00    -0.391 OA
ATOM     32  H   SGN d5702      64.003  45.618  36.228  0.00  0.00     0.210 HD
ENDBRANCH   5  31
BRANCH   2  33
ATOM     33  N   SGN d5702      64.797  43.827  34.060  0.00  0.00    -0.189 NA
ATOM     34  H   SGN d5702      64.983  43.013  33.475  0.00  0.00     0.143 HD
BRANCH  33  35
ATOM     35  S1  SGN d5702      63.972  45.051  33.090  0.00  0.00     0.183 S 
ATOM     36  O1S SGN d5702      64.734  45.263  31.875  0.00  0.00    -0.582 OA
ATOM     37  O2S SGN d5702      63.963  46.281  33.812  0.00  0.00    -0.582 OA
ATOM     38  O3S SGN d5702      62.641  44.521  32.860  0.00  0.00    -0.582 OA
ENDBRANCH  33  35
ENDBRANCH   2  33
BRANCH   6  39
ATOM     39  O1  SGN d5702      65.088  41.239  35.031  0.00  0.00    -0.369 OA
ATOM     40  H   SGN d5702      65.707  41.632  35.666  0.00  0.00     0.212 HD
ENDBRANCH   6  39
TORSDOF 14
ENDMDL
MODEL 7
REMARK VINA RESULT:      -2.5      2.550      7.455
REMARK  14 active torsions:
REMARK  status: ('A' for Active; 'I' for Inactive)
REMARK    1  A    between atoms: C5_1  and  C6_23 
REMARK    2  A    between atoms: S2_5  and  O6_7 
REMARK    3  A    between atoms: O1_6  and  C1_35 
REMARK    4  A    between atoms: O6_7  and  C6_21 
REMARK    5  A    between atoms: O2_9  and  C2_28 
REMARK    6  A    between atoms: O2_9  and  S_13 
REMARK    7  A    between atoms: C3_10  and  O3_20 
REMARK    8  A    between atoms: C1_11  and  O4_12 
REMARK    9  A    between atoms: O4_12  and  C4_19 
REMARK   10  A    between atoms: C2_15  and  N_29 
REMARK   11  A    between atoms: C5_17  and  C6_21 
REMARK   12  A    between atoms: C6_23  and  O61_33 
REMARK   13  A    between atoms: O3_24  and  C3_26 
REMARK   14  A    between atoms: S1_27  and  N_29 
ROOT
ATOM      1  O5  SGN d5702      63.505  41.861  33.202  0.00  0.00    -0.350 OA
ATOM      2  C2  SGN d5702      65.845  41.846  32.665  0.00  0.00     0.160 C 
ATOM      3  C5  SGN d5702      63.637  40.827  34.148  0.00  0.00     0.181 C 
ATOM      4  C4  SGN d5702      65.062  40.862  34.737  0.00  0.00     0.186 C 
ATOM      5  C3  SGN d5702      66.059  40.659  33.566  0.00  0.00     0.173 C 
ATOM      6  C1  SGN d5702      64.431  41.841  32.113  0.00  0.00     0.278 C 
ENDROOT
BRANCH   4   7
ATOM      7  O4  SGN d5702      65.124  39.785  35.712  0.00  0.00    -0.348 OA
BRANCH   7   8
ATOM      8  C1  IDU d1623      65.475  39.908  37.075  0.00  0.00     0.294 C 
ATOM      9  O5  IDU d1623      64.411  40.482  37.902  0.00  0.00    -0.343 OA
ATOM     10  C5  IDU d1623      64.811  40.733  39.296  0.00  0.00     0.224 C 
ATOM     11  C4  IDU d1623      65.204  39.396  39.947  0.00  0.00     0.077 C 
ATOM     12  C3  IDU d1623      66.334  38.740  39.138  0.00  0.00     0.156 C 
ATOM     13  C2  IDU d1623      65.829  38.549  37.699  0.00  0.00     0.228 C 
BRANCH  10  14
ATOM     14  C6  IDU d1623      63.683  41.331  40.092  0.00  0.00     0.170 C 
ATOM     15  O62 IDU d1623      63.719  42.546  40.335  0.00  0.00    -0.648 OA
BRANCH  14  16
ATOM     16  O61 IDU d1623      62.769  40.568  40.467  0.00  0.00    -0.774 OA
ENDBRANCH  14  16
ENDBRANCH  10  14
BRANCH  12  18
ATOM     18  O3  IDU d1623      67.460  39.573  39.146  0.00  0.00    -0.393 OA
ATOM     19  H   IDU d1623      68.262  39.031  39.200  0.00  0.00     0.210 HD
ENDBRANCH  12  18
BRANCH  13  20
ATOM     20  O2  IDU d1623      64.660  37.765  37.704  0.00  0.00    -0.244 OA
BRANCH  20  21
ATOM     21  S   IDU d1623      64.820  36.059  37.960  0.00  0.00     0.252 S 
ATOM     22  O3S IDU d1623      66.114  35.618  37.594  0.00  0.00    -0.572 OA
ATOM     23  O1S IDU d1623      63.768  35.431  37.218  0.00  0.00    -0.572 OA
ATOM     24  O2S IDU d1623      64.668  35.731  39.369  0.00  0.00    -0.572 OA
ENDBRANCH  20  21
ENDBRANCH  13  20
ENDBRANCH   7   8
ENDBRANCH   4   7
BRANCH   3  25
ATOM     25  C6  SGN d5702      62.588  41.047  35.192  0.00  0.00     0.227 C 
BRANCH  25  26
ATOM     26  O6  SGN d5702      62.277  42.426  35.061  0.00  0.00    -0.254 OA
BRANCH  26  27
ATOM     27  S2  SGN d5702      61.241  43.158  36.238  0.00  0.00     0.251 S 
ATOM     28  O4S SGN d5702      61.520  42.672  37.551  0.00  0.00    -0.572 OA
ATOM     29  O5S SGN d5702      59.880  42.849  35.901  0.00  0.00    -0.572 OA
ATOM     30  O6S SGN d5702      61.533  44.560  36.178  0.00  0.00    -0.572 OA
ENDBRANCH  26  27
ENDBRANCH  25  26
ENDBRANCH   3  25
BRANCH   5  31
ATOM     31  O3  SGN d5702      67.380  40.696  34.051  0.00  0.00    -0.391 OA
ATOM     32  H   SGN d5702      67.986  40.902  33.322  0.00  0.00     0.210 HD
ENDBRANCH   5  31
BRANCH   2  33
ATOM     33  N   SGN d5702      66.739  41.794  31.555  0.00  0.00    -0.189 NA
ATOM     34  H   SGN d5702      66.198  41.861  30.693  0.00  0.00     0.143 HD
BRANCH  33  35
ATOM     35  S1  SGN d5702      67.917  43.109  31.593  0.00  0.00     0.183 S 
ATOM     36  O1S SGN d5702      67.336  44.225  32.312  0.00  0.00    -0.582 OA
ATOM     37  O2S SGN d5702      68.165  43.542  30.256  0.00  0.00    -0.582 OA
ATOM     38  O3S SGN d5702      69.092  42.549  32.232  0.00  0.00    -0.582 OA
ENDBRANCH  33  35
ENDBRANCH   2  33
BRANCH   6  39
ATOM     39  O1  SGN d5702      64.182  40.740  31.272  0.00  0.00    -0.369 OA
ATOM     40  H   SGN d5702      64.680  39.971  31.591  0.00  0.00     0.212 HD
ENDBRANCH   6  39
TORSDOF 14
ENDMDL
MODEL 8
REMARK VINA RESULT:      -2.4      3.290      7.580
REMARK  14 active torsions:
REMARK  status: ('A' for Active; 'I' for Inactive)
REMARK    1  A    between atoms: C5_1  and  C6_23 
REMARK    2  A    between atoms: S2_5  and  O6_7 
REMARK    3  A    between atoms: O1_6  and  C1_35 
REMARK    4  A    between atoms: O6_7  and  C6_21 
REMARK    5  A    between atoms: O2_9  and  C2_28 
REMARK    6  A    between atoms: O2_9  and  S_13 
REMARK    7  A    between atoms: C3_10  and  O3_20 
REMARK    8  A    between atoms: C1_11  and  O4_12 
REMARK    9  A    between atoms: O4_12  and  C4_19 
REMARK   10  A    between atoms: C2_15  and  N_29 
REMARK   11  A    between atoms: C5_17  and  C6_21 
REMARK   12  A    between atoms: C6_23  and  O61_33 
REMARK   13  A    between atoms: O3_24  and  C3_26 
REMARK   14  A    between atoms: S1_27  and  N_29 
ROOT
ATOM      1  O5  SGN d5702      63.646  42.751  32.891  0.00  0.00    -0.350 OA
ATOM      2  C2  SGN d5702      65.817  42.835  31.870  0.00  0.00     0.160 C 
ATOM      3  C5  SGN d5702      63.947  41.584  33.616  0.00  0.00     0.181 C 
ATOM      4  C4  SGN d5702      65.464  41.535  33.886  0.00  0.00     0.186 C 
ATOM      5  C3  SGN d5702      66.185  41.522  32.511  0.00  0.00     0.173 C 
ATOM      6  C1  SGN d5702      64.319  42.907  31.639  0.00  0.00     0.278 C 
ENDROOT
BRANCH   4   7
ATOM      7  O4  SGN d5702      65.702  40.319  34.647  0.00  0.00    -0.348 OA
BRANCH   7   8
ATOM      8  C1  IDU d1623      66.708  40.123  35.619  0.00  0.00     0.294 C 
ATOM      9  O5  IDU d1623      66.778  41.197  36.612  0.00  0.00    -0.343 OA
ATOM     10  C5  IDU d1623      67.904  41.068  37.551  0.00  0.00     0.224 C 
ATOM     11  C4  IDU d1623      67.748  39.753  38.333  0.00  0.00     0.077 C 
ATOM     12  C3  IDU d1623      67.684  38.573  37.352  0.00  0.00     0.156 C 
ATOM     13  C2  IDU d1623      66.501  38.817  36.402  0.00  0.00     0.228 C 
BRANCH  10  14
ATOM     14  C6  IDU d1623      67.930  42.203  38.538  0.00  0.00     0.170 C 
ATOM     15  O62 IDU d1623      68.220  43.335  38.121  0.00  0.00    -0.648 OA
BRANCH  14  16
ATOM     16  O61 IDU d1623      67.658  41.944  39.728  0.00  0.00    -0.774 OA
ENDBRANCH  14  16
ENDBRANCH  10  14
BRANCH  12  18
ATOM     18  O3  IDU d1623      68.878  38.504  36.624  0.00  0.00    -0.393 OA
ATOM     19  H   IDU d1623      69.119  37.575  36.485  0.00  0.00     0.210 HD
ENDBRANCH  12  18
BRANCH  13  20
ATOM     20  O2  IDU d1623      65.312  38.951  37.146  0.00  0.00    -0.244 OA
BRANCH  20  21
ATOM     21  S   IDU d1623      64.534  37.510  37.709  0.00  0.00     0.252 S 
ATOM     22  O3S IDU d1623      64.834  36.416  36.863  0.00  0.00    -0.572 OA
ATOM     23  O1S IDU d1623      63.135  37.803  37.793  0.00  0.00    -0.572 OA
ATOM     24  O2S IDU d1623      65.022  37.141  39.029  0.00  0.00    -0.572 OA
ENDBRANCH  20  21
ENDBRANCH  13  20
ENDBRANCH   7   8
ENDBRANCH   4   7
BRANCH   3  25
ATOM     25  C6  SGN d5702      63.149  41.632  34.882  0.00  0.00     0.227 C 
BRANCH  25  26
ATOM     26  O6  SGN d5702      62.346  40.463  34.808  0.00  0.00    -0.254 OA
BRANCH  26  27
ATOM     27  S2  SGN d5702      60.757  40.504  35.494  0.00  0.00     0.251 S 
ATOM     28  O4S SGN d5702      60.229  41.830  35.503  0.00  0.00    -0.572 OA
ATOM     29  O5S SGN d5702      60.832  40.018  36.843  0.00  0.00    -0.572 OA
ATOM     30  O6S SGN d5702      59.956  39.678  34.639  0.00  0.00    -0.572 OA
ENDBRANCH  26  27
ENDBRANCH  25  26
ENDBRANCH   3  25
BRANCH   5  31
ATOM     31  O3  SGN d5702      67.579  41.491  32.703  0.00  0.00    -0.391 OA
ATOM     32  H   SGN d5702      67.774  41.199  33.607  0.00  0.00     0.210 HD
ENDBRANCH   5  31
BRANCH   2  33
ATOM     33  N   SGN d5702      66.454  42.961  30.601  0.00  0.00    -0.189 NA
ATOM     34  H   SGN d5702      65.747  43.178  29.898  0.00  0.00     0.143 HD
BRANCH  33  35
ATOM     35  S1  SGN d5702      67.673  44.239  30.597  0.00  0.00     0.183 S 
ATOM     36  O1S SGN d5702      67.137  45.383  29.887  0.00  0.00    -0.582 OA
ATOM     37  O2S SGN d5702      68.815  43.782  29.875  0.00  0.00    -0.582 OA
ATOM     38  O3S SGN d5702      67.956  44.499  31.996  0.00  0.00    -0.582 OA
ENDBRANCH  33  35
ENDBRANCH   2  33
BRANCH   6  39
ATOM     39  O1  SGN d5702      63.867  41.949  30.712  0.00  0.00    -0.369 OA
ATOM     40  H   SGN d5702      64.530  41.837  30.013  0.00  0.00     0.212 HD
ENDBRANCH   6  39
TORSDOF 14
ENDMDL
MODEL 9
REMARK VINA RESULT:      -2.2      4.775      8.283
REMARK  14 active torsions:
REMARK  status: ('A' for Active; 'I' for Inactive)
REMARK    1  A    between atoms: C5_1  and  C6_23 
REMARK    2  A    between atoms: S2_5  and  O6_7 
REMARK    3  A    between atoms: O1_6  and  C1_35 
REMARK    4  A    between atoms: O6_7  and  C6_21 
REMARK    5  A    between atoms: O2_9  and  C2_28 
REMARK    6  A    between atoms: O2_9  and  S_13 
REMARK    7  A    between atoms: C3_10  and  O3_20 
REMARK    8  A    between atoms: C1_11  and  O4_12 
REMARK    9  A    between atoms: O4_12  and  C4_19 
REMARK   10  A    between atoms: C2_15  and  N_29 
REMARK   11  A    between atoms: C5_17  and  C6_21 
REMARK   12  A    between atoms: C6_23  and  O61_33 
REMARK   13  A    between atoms: O3_24  and  C3_26 
REMARK   14  A    between atoms: S1_27  and  N_29 
ROOT
ATOM      1  O5  SGN d5702      63.520  41.513  36.052  0.00  0.00    -0.350 OA
ATOM      2  C2  SGN d5702      64.399  43.231  34.625  0.00  0.00     0.160 C 
ATOM      3  C5  SGN d5702      64.548  41.667  37.000  0.00  0.00     0.181 C 
ATOM      4  C4  SGN d5702      65.062  43.119  36.954  0.00  0.00     0.186 C 
ATOM      5  C3  SGN d5702      65.600  43.382  35.522  0.00  0.00     0.173 C 
ATOM      6  C1  SGN d5702      63.862  41.814  34.696  0.00  0.00     0.278 C 
ENDROOT
BRANCH   4   7
ATOM      7  O4  SGN d5702      66.105  43.213  37.964  0.00  0.00    -0.348 OA
BRANCH   7   8
ATOM      8  C1  IDU d1623      66.275  44.259  38.897  0.00  0.00     0.294 C 
ATOM      9  O5  IDU d1623      65.181  44.363  39.864  0.00  0.00    -0.343 OA
ATOM     10  C5  IDU d1623      65.285  45.527  40.759  0.00  0.00     0.224 C 
ATOM     11  C4  IDU d1623      66.584  45.412  41.573  0.00  0.00     0.077 C 
ATOM     12  C3  IDU d1623      67.785  45.315  40.619  0.00  0.00     0.156 C 
ATOM     13  C2  IDU d1623      67.567  44.093  39.714  0.00  0.00     0.228 C 
BRANCH  10  14
ATOM     14  C6  IDU d1623      64.130  45.586  41.721  0.00  0.00     0.170 C 
ATOM     15  O62 IDU d1623      63.769  46.699  42.136  0.00  0.00    -0.648 OA
BRANCH  14  16
ATOM     16  O61 IDU d1623      63.596  44.508  42.053  0.00  0.00    -0.774 OA
ENDBRANCH  14  16
ENDBRANCH  10  14
BRANCH  12  18
ATOM     18  O3  IDU d1623      67.862  46.479  39.844  0.00  0.00    -0.393 OA
ATOM     19  H   IDU d1623      68.261  47.191  40.369  0.00  0.00     0.210 HD
ENDBRANCH  12  18
BRANCH  13  20
ATOM     20  O2  IDU d1623      67.424  42.935  40.503  0.00  0.00    -0.244 OA
BRANCH  20  21
ATOM     21  S   IDU d1623      68.861  42.137  41.050  0.00  0.00     0.252 S 
ATOM     22  O3S IDU d1623      69.964  42.475  40.230  0.00  0.00    -0.572 OA
ATOM     23  O1S IDU d1623      68.571  40.735  41.072  0.00  0.00    -0.572 OA
ATOM     24  O2S IDU d1623      69.214  42.570  42.394  0.00  0.00    -0.572 OA
ENDBRANCH  20  21
ENDBRANCH  13  20
ENDBRANCH   7   8
ENDBRANCH   4   7
BRANCH   3  25
ATOM     25  C6  SGN d5702      63.973  41.313  38.336  0.00  0.00     0.227 C 
BRANCH  25  26
ATOM     26  O6  SGN d5702      62.634  40.949  38.032  0.00  0.00    -0.254 OA
BRANCH  26  27
ATOM     27  S2  SGN d5702      62.178  39.285  38.157  0.00  0.00     0.251 S 
ATOM     28  O4S SGN d5702      63.185  38.428  37.619  0.00  0.00    -0.572 OA
ATOM     29  O5S SGN d5702      60.957  39.092  37.429  0.00  0.00    -0.572 OA
ATOM     30  O6S SGN d5702      62.043  39.035  39.563  0.00  0.00    -0.572 OA
ENDBRANCH  26  27
ENDBRANCH  25  26
ENDBRANCH   3  25
BRANCH   5  31
ATOM     31  O3  SGN d5702      66.071  44.704  35.423  0.00  0.00    -0.391 OA
ATOM     32  H   SGN d5702      66.430  44.854  34.535  0.00  0.00     0.210 HD
ENDBRANCH   5  31
BRANCH   2  33
ATOM     33  N   SGN d5702      64.760  43.486  33.270  0.00  0.00    -0.189 NA
ATOM     34  H   SGN d5702      64.549  42.658  32.711  0.00  0.00     0.143 HD
BRANCH  33  35
ATOM     35  S1  SGN d5702      63.882  44.865  32.600  0.00  0.00     0.183 S 
ATOM     36  O1S SGN d5702      64.071  44.875  31.163  0.00  0.00    -0.582 OA
ATOM     37  O2S SGN d5702      64.451  46.066  33.116  0.00  0.00    -0.582 OA
ATOM     38  O3S SGN d5702      62.503  44.672  33.008  0.00  0.00    -0.582 OA
ENDBRANCH  33  35
ENDBRANCH   2  33
BRANCH   6  39
ATOM     39  O1  SGN d5702      64.772  40.864  34.194  0.00  0.00    -0.369 OA
ATOM     40  H   SGN d5702      65.663  41.067  34.518  0.00  0.00     0.212 HD
ENDBRANCH   6  39
TORSDOF 14
ENDMDL
MODEL 10
REMARK VINA RESULT:      -2.1      3.043      7.214
REMARK  14 active torsions:
REMARK  status: ('A' for Active; 'I' for Inactive)
REMARK    1  A    between atoms: C5_1  and  C6_23 
REMARK    2  A    between atoms: S2_5  and  O6_7 
REMARK    3  A    between atoms: O1_6  and  C1_35 
REMARK    4  A    between atoms: O6_7  and  C6_21 
REMARK    5  A    between atoms: O2_9  and  C2_28 
REMARK    6  A    between atoms: O2_9  and  S_13 
REMARK    7  A    between atoms: C3_10  and  O3_20 
REMARK    8  A    between atoms: C1_11  and  O4_12 
REMARK    9  A    between atoms: O4_12  and  C4_19 
REMARK   10  A    between atoms: C2_15  and  N_29 
REMARK   11  A    between atoms: C5_17  and  C6_21 
REMARK   12  A    between atoms: C6_23  and  O61_33 
REMARK   13  A    between atoms: O3_24  and  C3_26 
REMARK   14  A    between atoms: S1_27  and  N_29 
ROOT
ATOM      1  O5  SGN d5702      64.420  41.493  32.893  0.00  0.00    -0.350 OA
ATOM      2  C2  SGN d5702      66.185  39.923  32.465  0.00  0.00     0.160 C 
ATOM      3  C5  SGN d5702      64.049  40.866  34.096  0.00  0.00     0.181 C 
ATOM      4  C4  SGN d5702      65.283  40.167  34.702  0.00  0.00     0.186 C 
ATOM      5  C3  SGN d5702      65.781  39.118  33.672  0.00  0.00     0.173 C 
ATOM      6  C1  SGN d5702      64.982  40.646  31.887  0.00  0.00     0.278 C 
ENDROOT
BRANCH   4   7
ATOM      7  O4  SGN d5702      64.836  39.556  35.943  0.00  0.00    -0.348 OA
BRANCH   7   8
ATOM      8  C1  IDU d1623      65.422  39.723  37.218  0.00  0.00     0.294 C 
ATOM      9  O5  IDU d1623      64.966  40.926  37.917  0.00  0.00    -0.343 OA
ATOM     10  C5  IDU d1623      65.665  41.176  39.188  0.00  0.00     0.224 C 
ATOM     11  C4  IDU d1623      65.412  39.992  40.135  0.00  0.00     0.077 C 
ATOM     12  C3  IDU d1623      65.885  38.690  39.470  0.00  0.00     0.156 C 
ATOM     13  C2  IDU d1623      65.121  38.536  38.146  0.00  0.00     0.228 C 
BRANCH  10  14
ATOM     14  C6  IDU d1623      65.161  42.428  39.855  0.00  0.00     0.170 C 
ATOM     15  O62 IDU d1623      63.960  42.713  39.734  0.00  0.00    -0.648 OA
BRANCH  14  16
ATOM     16  O61 IDU d1623      65.983  43.116  40.494  0.00  0.00    -0.774 OA
ENDBRANCH  14  16
ENDBRANCH  10  14
BRANCH  12  18
ATOM     18  O3  IDU d1623      67.262  38.762  39.226  0.00  0.00    -0.393 OA
ATOM     19  H   IDU d1623      67.492  38.166  38.496  0.00  0.00     0.210 HD
ENDBRANCH  12  18
BRANCH  13  20
ATOM     20  O2  IDU d1623      63.735  38.530  38.393  0.00  0.00    -0.244 OA
BRANCH  20  21
ATOM     21  S   IDU d1623      62.969  37.011  38.723  0.00  0.00     0.252 S 
ATOM     22  O3S IDU d1623      61.694  36.952  38.114  0.00  0.00    -0.572 OA
ATOM     23  O1S IDU d1623      62.933  36.869  40.147  0.00  0.00    -0.572 OA
ATOM     24  O2S IDU d1623      63.736  35.912  38.156  0.00  0.00    -0.572 OA
ENDBRANCH  20  21
ENDBRANCH  13  20
ENDBRANCH   7   8
ENDBRANCH   4   7
BRANCH   3  25
ATOM     25  C6  SGN d5702      63.502  41.928  34.998  0.00  0.00     0.227 C 
BRANCH  25  26
ATOM     26  O6  SGN d5702      62.106  41.891  34.740  0.00  0.00    -0.254 OA
BRANCH  26  27
ATOM     27  S2  SGN d5702      61.038  41.430  36.022  0.00  0.00     0.251 S 
ATOM     28  O4S SGN d5702      59.910  42.302  36.097  0.00  0.00    -0.572 OA
ATOM     29  O5S SGN d5702      61.762  41.488  37.259  0.00  0.00    -0.572 OA
ATOM     30  O6S SGN d5702      60.596  40.108  35.687  0.00  0.00    -0.572 OA
ENDBRANCH  26  27
ENDBRANCH  25  26
ENDBRANCH   3  25
BRANCH   5  31
ATOM     31  O3  SGN d5702      66.919  38.459  34.173  0.00  0.00    -0.391 OA
ATOM     32  H   SGN d5702      67.607  39.111  34.377  0.00  0.00     0.210 HD
ENDBRANCH   5  31
BRANCH   2  33
ATOM     33  N   SGN d5702      66.699  39.066  31.448  0.00  0.00    -0.189 NA
ATOM     34  H   SGN d5702      66.263  39.311  30.558  0.00  0.00     0.143 HD
BRANCH  33  35
ATOM     35  S1  SGN d5702      68.451  39.212  31.283  0.00  0.00     0.183 S 
ATOM     36  O1S SGN d5702      68.875  40.427  31.951  0.00  0.00    -0.582 OA
ATOM     37  O2S SGN d5702      68.773  39.348  29.900  0.00  0.00    -0.582 OA
ATOM     38  O3S SGN d5702      68.991  38.002  31.873  0.00  0.00    -0.582 OA
ENDBRANCH  33  35
ENDBRANCH   2  33
BRANCH   6  39
ATOM     39  O1  SGN d5702      64.008  39.763  31.385  0.00  0.00    -0.369 OA
ATOM     40  H   SGN d5702      63.554  40.176  30.633  0.00  0.00     0.212 HD
ENDBRANCH   6  39
TORSDOF 14
ENDMDL
MODEL 11
REMARK VINA RESULT:      -1.8      3.132      6.944
REMARK  14 active torsions:
REMARK  status: ('A' for Active; 'I' for Inactive)
REMARK    1  A    between atoms: C5_1  and  C6_23 
REMARK    2  A    between atoms: S2_5  and  O6_7 
REMARK    3  A    between atoms: O1_6  and  C1_35 
REMARK    4  A    between atoms: O6_7  and  C6_21 
REMARK    5  A    between atoms: O2_9  and  C2_28 
REMARK    6  A    between atoms: O2_9  and  S_13 
REMARK    7  A    between atoms: C3_10  and  O3_20 
REMARK    8  A    between atoms: C1_11  and  O4_12 
REMARK    9  A    between atoms: O4_12  and  C4_19 
REMARK   10  A    between atoms: C2_15  and  N_29 
REMARK   11  A    between atoms: C5_17  and  C6_21 
REMARK   12  A    between atoms: C6_23  and  O61_33 
REMARK   13  A    between atoms: O3_24  and  C3_26 
REMARK   14  A    between atoms: S1_27  and  N_29 
ROOT
ATOM      1  O5  SGN d5702      64.392  42.540  33.216  0.00  0.00    -0.350 OA
ATOM      2  C2  SGN d5702      66.018  40.774  33.247  0.00  0.00     0.160 C 
ATOM      3  C5  SGN d5702      63.916  42.229  34.503  0.00  0.00     0.181 C 
ATOM      4  C4  SGN d5702      65.054  41.583  35.319  0.00  0.00     0.186 C 
ATOM      5  C3  SGN d5702      65.493  40.294  34.574  0.00  0.00     0.173 C 
ATOM      6  C1  SGN d5702      64.912  41.447  32.454  0.00  0.00     0.278 C 
ENDROOT
BRANCH   4   7
ATOM      7  O4  SGN d5702      64.503  41.303  36.635  0.00  0.00    -0.348 OA
BRANCH   7   8
ATOM      8  C1  IDU d1623      65.101  41.613  37.877  0.00  0.00     0.294 C 
ATOM      9  O5  IDU d1623      64.657  42.891  38.436  0.00  0.00    -0.343 OA
ATOM     10  C5  IDU d1623      65.368  43.282  39.664  0.00  0.00     0.224 C 
ATOM     11  C4  IDU d1623      65.116  42.217  40.743  0.00  0.00     0.077 C 
ATOM     12  C3  IDU d1623      65.576  40.843  40.230  0.00  0.00     0.156 C 
ATOM     13  C2  IDU d1623      64.800  40.543  38.938  0.00  0.00     0.228 C 
BRANCH  10  14
ATOM     14  C6  IDU d1623      64.878  44.606  40.185  0.00  0.00     0.170 C 
ATOM     15  O62 IDU d1623      65.700  45.527  40.311  0.00  0.00    -0.648 OA
BRANCH  14  16
ATOM     16  O61 IDU d1623      63.666  44.707  40.464  0.00  0.00    -0.774 OA
ENDBRANCH  14  16
ENDBRANCH  10  14
BRANCH  12  18
ATOM     18  O3  IDU d1623      66.951  40.878  39.969  0.00  0.00    -0.393 OA
ATOM     19  H   IDU d1623      67.400  40.215  40.516  0.00  0.00     0.210 HD
ENDBRANCH  12  18
BRANCH  13  20
ATOM     20  O2  IDU d1623      63.416  40.575  39.195  0.00  0.00    -0.244 OA
BRANCH  20  21
ATOM     21  S   IDU d1623      62.518  39.104  39.023  0.00  0.00     0.252 S 
ATOM     22  O3S IDU d1623      63.380  38.026  38.708  0.00  0.00    -0.572 OA
ATOM     23  O1S IDU d1623      61.515  39.346  38.030  0.00  0.00    -0.572 OA
ATOM     24  O2S IDU d1623      61.870  38.745  40.275  0.00  0.00    -0.572 OA
ENDBRANCH  20  21
ENDBRANCH  13  20
ENDBRANCH   7   8
ENDBRANCH   4   7
BRANCH   3  25
ATOM     25  C6  SGN d5702      63.435  43.506  35.117  0.00  0.00     0.227 C 
BRANCH  25  26
ATOM     26  O6  SGN d5702      62.044  43.505  34.830  0.00  0.00    -0.254 OA
BRANCH  26  27
ATOM     27  S2  SGN d5702      60.928  43.316  36.139  0.00  0.00     0.251 S 
ATOM     28  O4S SGN d5702      60.485  44.581  36.631  0.00  0.00    -0.572 OA
ATOM     29  O5S SGN d5702      61.584  42.603  37.197  0.00  0.00    -0.572 OA
ATOM     30  O6S SGN d5702      59.813  42.605  35.584  0.00  0.00    -0.572 OA
ENDBRANCH  26  27
ENDBRANCH  25  26
ENDBRANCH   3  25
BRANCH   5  31
ATOM     31  O3  SGN d5702      66.543  39.672  35.274  0.00  0.00    -0.391 OA
ATOM     32  H   SGN d5702      66.350  39.683  36.224  0.00  0.00     0.210 HD
ENDBRANCH   5  31
BRANCH   2  33
ATOM     33  N   SGN d5702      66.490  39.672  32.474  0.00  0.00    -0.189 NA
ATOM     34  H   SGN d5702      66.060  39.710  31.549  0.00  0.00     0.143 HD
BRANCH  33  35
ATOM     35  S1  SGN d5702      68.246  39.700  32.288  0.00  0.00     0.183 S 
ATOM     36  O1S SGN d5702      68.832  38.893  33.340  0.00  0.00    -0.582 OA
ATOM     37  O2S SGN d5702      68.706  41.038  32.467  0.00  0.00    -0.582 OA
ATOM     38  O3S SGN d5702      68.495  39.191  30.953  0.00  0.00    -0.582 OA
ENDBRANCH  33  35
ENDBRANCH   2  33
BRANCH   6  39
ATOM     39  O1  SGN d5702      63.881  40.557  32.100  0.00  0.00    -0.369 OA
ATOM     40  H   SGN d5702      63.022  40.968  32.284  0.00  0.00     0.212 HD
ENDBRANCH   6  39
TORSDOF 14
ENDMDL
MODEL 12
REMARK VINA RESULT:      -1.2      3.614      7.711
REMARK  14 active torsions:
REMARK  status: ('A' for Active; 'I' for Inactive)
REMARK    1  A    between atoms: C5_1  and  C6_23 
REMARK    2  A    between atoms: S2_5  and  O6_7 
REMARK    3  A    between atoms: O1_6  and  C1_35 
REMARK    4  A    between atoms: O6_7  and  C6_21 
REMARK    5  A    between atoms: O2_9  and  C2_28 
REMARK    6  A    between atoms: O2_9  and  S_13 
REMARK    7  A    between atoms: C3_10  and  O3_20 
REMARK    8  A    between atoms: C1_11  and  O4_12 
REMARK    9  A    between atoms: O4_12  and  C4_19 
REMARK   10  A    between atoms: C2_15  and  N_29 
REMARK   11  A    between atoms: C5_17  and  C6_21 
REMARK   12  A    between atoms: C6_23  and  O61_33 
REMARK   13  A    between atoms: O3_24  and  C3_26 
REMARK   14  A    between atoms: S1_27  and  N_29 
ROOT
ATOM      1  O5  SGN d5702      63.994  41.359  35.990  0.00  0.00    -0.350 OA
ATOM      2  C2  SGN d5702      64.614  41.315  33.672  0.00  0.00     0.160 C 
ATOM      3  C5  SGN d5702      64.489  40.063  36.227  0.00  0.00     0.181 C 
ATOM      4  C4  SGN d5702      65.637  39.775  35.239  0.00  0.00     0.186 C 
ATOM      5  C3  SGN d5702      65.059  39.882  33.803  0.00  0.00     0.173 C 
ATOM      6  C1  SGN d5702      63.511  41.618  34.669  0.00  0.00     0.278 C 
ENDROOT
BRANCH   4   7
ATOM      7  O4  SGN d5702      66.111  38.435  35.547  0.00  0.00    -0.348 OA
BRANCH   7   8
ATOM      8  C1  IDU d1623      67.443  38.062  35.831  0.00  0.00     0.294 C 
ATOM      9  O5  IDU d1623      67.799  38.196  37.246  0.00  0.00    -0.343 OA
ATOM     10  C5  IDU d1623      69.219  37.933  37.530  0.00  0.00     0.224 C 
ATOM     11  C4  IDU d1623      69.546  36.486  37.128  0.00  0.00     0.077 C 
ATOM     12  C3  IDU d1623      69.212  36.275  35.643  0.00  0.00     0.156 C 
ATOM     13  C2  IDU d1623      67.723  36.600  35.446  0.00  0.00     0.228 C 
BRANCH  10  14
ATOM     14  C6  IDU d1623      69.525  38.096  38.994  0.00  0.00     0.170 C 
ATOM     15  O62 IDU d1623      69.330  37.127  39.744  0.00  0.00    -0.648 OA
BRANCH  14  16
ATOM     16  O61 IDU d1623      69.958  39.202  39.377  0.00  0.00    -0.774 OA
ENDBRANCH  14  16
ENDBRANCH  10  14
BRANCH  12  18
ATOM     18  O3  IDU d1623      69.999  37.129  34.861  0.00  0.00    -0.393 OA
ATOM     19  H   IDU d1623      70.505  37.722  35.439  0.00  0.00     0.210 HD
ENDBRANCH  12  18
BRANCH  13  20
ATOM     20  O2  IDU d1623      66.942  35.783  36.285  0.00  0.00    -0.244 OA
BRANCH  20  21
ATOM     21  S   IDU d1623      66.106  34.443  35.572  0.00  0.00     0.252 S 
ATOM     22  O3S IDU d1623      64.864  34.856  35.036  0.00  0.00    -0.572 OA
ATOM     23  O1S IDU d1623      65.988  33.442  36.590  0.00  0.00    -0.572 OA
ATOM     24  O2S IDU d1623      66.863  33.897  34.455  0.00  0.00    -0.572 OA
ENDBRANCH  20  21
ENDBRANCH  13  20
ENDBRANCH   7   8
ENDBRANCH   4   7
BRANCH   3  25
ATOM     25  C6  SGN d5702      64.945  40.018  37.652  0.00  0.00     0.227 C 
BRANCH  25  26
ATOM     26  O6  SGN d5702      64.140  38.996  38.222  0.00  0.00    -0.254 OA
BRANCH  26  27
ATOM     27  S2  SGN d5702      62.688  39.449  39.048  0.00  0.00     0.251 S 
ATOM     28  O4S SGN d5702      62.578  38.786  40.307  0.00  0.00    -0.572 OA
ATOM     29  O5S SGN d5702      61.567  39.089  38.227  0.00  0.00    -0.572 OA
ATOM     30  O6S SGN d5702      62.800  40.862  39.262  0.00  0.00    -0.572 OA
ENDBRANCH  26  27
ENDBRANCH  25  26
ENDBRANCH   3  25
BRANCH   5  31
ATOM     31  O3  SGN d5702      66.074  39.639  32.859  0.00  0.00    -0.391 OA
ATOM     32  H   SGN d5702      66.469  40.481  32.585  0.00  0.00     0.210 HD
ENDBRANCH   5  31
BRANCH   2  33
ATOM     33  N   SGN d5702      64.089  41.552  32.367  0.00  0.00    -0.189 NA
ATOM     34  H   SGN d5702      63.083  41.705  32.439  0.00  0.00     0.143 HD
BRANCH  33  35
ATOM     35  S1  SGN d5702      64.827  42.965  31.606  0.00  0.00     0.183 S 
ATOM     36  O1S SGN d5702      66.076  43.252  32.283  0.00  0.00    -0.582 OA
ATOM     37  O2S SGN d5702      63.969  44.089  31.794  0.00  0.00    -0.582 OA
ATOM     38  O3S SGN d5702      64.987  42.604  30.210  0.00  0.00    -0.582 OA
ENDBRANCH  33  35
ENDBRANCH   2  33
BRANCH   6  39
ATOM     39  O1  SGN d5702      62.337  40.883  34.419  0.00  0.00    -0.369 OA
ATOM     40  H   SGN d5702      61.572  41.479  34.442  0.00  0.00     0.212 HD
ENDBRANCH   6  39
TORSDOF 14
ENDMDL
MODEL 13
REMARK VINA RESULT:      -1.0      4.126      8.376
REMARK  14 active torsions:
REMARK  status: ('A' for Active; 'I' for Inactive)
REMARK    1  A    between atoms: C5_1  and  C6_23 
REMARK    2  A    between atoms: S2_5  and  O6_7 
REMARK    3  A    between atoms: O1_6  and  C1_35 
REMARK    4  A    between atoms: O6_7  and  C6_21 
REMARK    5  A    between atoms: O2_9  and  C2_28 
REMARK    6  A    between atoms: O2_9  and  S_13 
REMARK    7  A    between atoms: C3_10  and  O3_20 
REMARK    8  A    between atoms: C1_11  and  O4_12 
REMARK    9  A    between atoms: O4_12  and  C4_19 
REMARK   10  A    between atoms: C2_15  and  N_29 
REMARK   11  A    between atoms: C5_17  and  C6_21 
REMARK   12  A    between atoms: C6_23  and  O61_33 
REMARK   13  A    between atoms: O3_24  and  C3_26 
REMARK   14  A    between atoms: S1_27  and  N_29 
ROOT
ATOM      1  O5  SGN d5702      64.462  39.832  36.955  0.00  0.00    -0.350 OA
ATOM      2  C2  SGN d5702      63.022  41.261  35.672  0.00  0.00     0.160 C 
ATOM      3  C5  SGN d5702      64.655  40.798  37.960  0.00  0.00     0.181 C 
ATOM      4  C4  SGN d5702      63.417  41.715  38.021  0.00  0.00     0.186 C 
ATOM      5  C3  SGN d5702      63.267  42.395  36.633  0.00  0.00     0.173 C 
ATOM      6  C1  SGN d5702      64.221  40.332  35.637  0.00  0.00     0.278 C 
ENDROOT
BRANCH   4   7
ATOM      7  O4  SGN d5702      63.673  42.674  39.083  0.00  0.00    -0.348 OA
BRANCH   7   8
ATOM      8  C1  IDU d1623      62.802  43.000  40.145  0.00  0.00     0.294 C 
ATOM      9  O5  IDU d1623      62.732  41.968  41.182  0.00  0.00    -0.343 OA
ATOM     10  C5  IDU d1623      61.732  42.241  42.227  0.00  0.00     0.224 C 
ATOM     11  C4  IDU d1623      62.100  43.554  42.936  0.00  0.00     0.077 C 
ATOM     12  C3  IDU d1623      62.176  44.693  41.907  0.00  0.00     0.156 C 
ATOM     13  C2  IDU d1623      63.221  44.301  40.850  0.00  0.00     0.228 C 
BRANCH  10  14
ATOM     14  C6  IDU d1623      61.699  41.143  43.255  0.00  0.00     0.170 C 
ATOM     15  O62 IDU d1623      62.775  40.768  43.746  0.00  0.00    -0.648 OA
BRANCH  14  16
ATOM     16  O61 IDU d1623      60.587  40.666  43.559  0.00  0.00    -0.774 OA
ENDBRANCH  14  16
ENDBRANCH  10  14
BRANCH  12  18
ATOM     18  O3  IDU d1623      60.923  44.863  41.305  0.00  0.00    -0.393 OA
ATOM     19  H   IDU d1623      60.226  44.724  41.964  0.00  0.00     0.210 HD
ENDBRANCH  12  18
BRANCH  13  20
ATOM     20  O2  IDU d1623      64.462  44.066  41.471  0.00  0.00    -0.244 OA
BRANCH  20  21
ATOM     21  S   IDU d1623      65.736  45.212  41.211  0.00  0.00     0.252 S 
ATOM     22  O3S IDU d1623      65.220  46.529  41.159  0.00  0.00    -0.572 OA
ATOM     23  O1S IDU d1623      66.412  44.812  40.014  0.00  0.00    -0.572 OA
ATOM     24  O2S IDU d1623      66.680  45.195  42.318  0.00  0.00    -0.572 OA
ENDBRANCH  20  21
ENDBRANCH  13  20
ENDBRANCH   7   8
ENDBRANCH   4   7
BRANCH   3  25
ATOM     25  C6  SGN d5702      64.877  40.062  39.244  0.00  0.00     0.227 C 
BRANCH  25  26
ATOM     26  O6  SGN d5702      66.244  40.313  39.534  0.00  0.00    -0.254 OA
BRANCH  26  27
ATOM     27  S2  SGN d5702      67.376  39.013  39.381  0.00  0.00     0.251 S 
ATOM     28  O4S SGN d5702      66.736  37.746  39.527  0.00  0.00    -0.572 OA
ATOM     29  O5S SGN d5702      68.374  39.158  40.402  0.00  0.00    -0.572 OA
ATOM     30  O6S SGN d5702      67.905  39.129  38.053  0.00  0.00    -0.572 OA
ENDBRANCH  26  27
ENDBRANCH  25  26
ENDBRANCH   3  25
BRANCH   5  31
ATOM     31  O3  SGN d5702      62.139  43.236  36.632  0.00  0.00    -0.391 OA
ATOM     32  H   SGN d5702      61.339  42.704  36.493  0.00  0.00     0.210 HD
ENDBRANCH   5  31
BRANCH   2  33
ATOM     33  N   SGN d5702      62.831  41.765  34.352  0.00  0.00    -0.189 NA
ATOM     34  H   SGN d5702      61.841  41.974  34.219  0.00  0.00     0.143 HD
BRANCH  33  35
ATOM     35  S1  SGN d5702      63.769  43.233  34.063  0.00  0.00     0.183 S 
ATOM     36  O1S SGN d5702      64.692  42.981  32.974  0.00  0.00    -0.582 OA
ATOM     37  O2S SGN d5702      64.543  43.520  35.225  0.00  0.00    -0.582 OA
ATOM     38  O3S SGN d5702      62.787  44.260  33.771  0.00  0.00    -0.582 OA
ENDBRANCH  33  35
ENDBRANCH   2  33
BRANCH   6  39
ATOM     39  O1  SGN d5702      65.376  40.955  35.126  0.00  0.00    -0.369 OA
ATOM     40  H   SGN d5702      65.163  41.865  34.865  0.00  0.00     0.212 HD
ENDBRANCH   6  39
TORSDOF 14
ENDMDL
MODEL 14
REMARK VINA RESULT:      -0.9      3.694      7.366
REMARK  14 active torsions:
REMARK  status: ('A' for Active; 'I' for Inactive)
REMARK    1  A    between atoms: C5_1  and  C6_23 
REMARK    2  A    between atoms: S2_5  and  O6_7 
REMARK    3  A    between atoms: O1_6  and  C1_35 
REMARK    4  A    between atoms: O6_7  and  C6_21 
REMARK    5  A    between atoms: O2_9  and  C2_28 
REMARK    6  A    between atoms: O2_9  and  S_13 
REMARK    7  A    between atoms: C3_10  and  O3_20 
REMARK    8  A    between atoms: C1_11  and  O4_12 
REMARK    9  A    between atoms: O4_12  and  C4_19 
REMARK   10  A    between atoms: C2_15  and  N_29 
REMARK   11  A    between atoms: C5_17  and  C6_21 
REMARK   12  A    between atoms: C6_23  and  O61_33 
REMARK   13  A    between atoms: O3_24  and  C3_26 
REMARK   14  A    between atoms: S1_27  and  N_29 
ROOT
ATOM      1  O5  SGN d5702      63.883  41.533  36.066  0.00  0.00    -0.350 OA
ATOM      2  C2  SGN d5702      64.060  42.630  33.938  0.00  0.00     0.160 C 
ATOM      3  C5  SGN d5702      64.345  40.305  35.557  0.00  0.00     0.181 C 
ATOM      4  C4  SGN d5702      65.273  40.574  34.356  0.00  0.00     0.186 C 
ATOM      5  C3  SGN d5702      64.445  41.330  33.283  0.00  0.00     0.173 C 
ATOM      6  C1  SGN d5702      63.178  42.371  35.146  0.00  0.00     0.278 C 
ENDROOT
BRANCH   4   7
ATOM      7  O4  SGN d5702      65.724  39.272  33.892  0.00  0.00    -0.348 OA
BRANCH   7   8
ATOM      8  C1  IDU d1623      67.058  38.898  33.613  0.00  0.00     0.294 C 
ATOM      9  O5  IDU d1623      67.656  38.053  34.648  0.00  0.00    -0.343 OA
ATOM     10  C5  IDU d1623      69.083  37.765  34.430  0.00  0.00     0.224 C 
ATOM     11  C4  IDU d1623      69.239  37.010  33.099  0.00  0.00     0.077 C 
ATOM     12  C3  IDU d1623      68.644  37.849  31.957  0.00  0.00     0.156 C 
ATOM     13  C2  IDU d1623      67.169  38.118  32.293  0.00  0.00     0.228 C 
BRANCH  10  14
ATOM     14  C6  IDU d1623      69.644  36.903  35.528  0.00  0.00     0.170 C 
ATOM     15  O62 IDU d1623      69.725  35.681  35.330  0.00  0.00    -0.648 OA
BRANCH  14  16
ATOM     16  O61 IDU d1623      69.998  37.466  36.584  0.00  0.00    -0.774 OA
ENDBRANCH  14  16
ENDBRANCH  10  14
BRANCH  12  18
ATOM     18  O3  IDU d1623      69.342  39.058  31.853  0.00  0.00    -0.393 OA
ATOM     19  H   IDU d1623      70.296  38.882  31.855  0.00  0.00     0.210 HD
ENDBRANCH  12  18
BRANCH  13  20
ATOM     20  O2  IDU d1623      66.488  36.898  32.461  0.00  0.00    -0.244 OA
BRANCH  20  21
ATOM     21  S   IDU d1623      65.585  36.273  31.121  0.00  0.00     0.252 S 
ATOM     22  O3S IDU d1623      66.452  35.736  30.141  0.00  0.00    -0.572 OA
ATOM     23  O1S IDU d1623      64.768  37.346  30.639  0.00  0.00    -0.572 OA
ATOM     24  O2S IDU d1623      64.727  35.176  31.542  0.00  0.00    -0.572 OA
ENDBRANCH  20  21
ENDBRANCH  13  20
ENDBRANCH   7   8
ENDBRANCH   4   7
BRANCH   3  25
ATOM     25  C6  SGN d5702      65.053  39.603  36.674  0.00  0.00     0.227 C 
BRANCH  25  26
ATOM     26  O6  SGN d5702      66.239  40.365  36.841  0.00  0.00    -0.254 OA
BRANCH  26  27
ATOM     27  S2  SGN d5702      67.389  39.860  38.032  0.00  0.00     0.251 S 
ATOM     28  O4S SGN d5702      67.417  38.438  38.156  0.00  0.00    -0.572 OA
ATOM     29  O5S SGN d5702      67.019  40.436  39.293  0.00  0.00    -0.572 OA
ATOM     30  O6S SGN d5702      68.658  40.320  37.550  0.00  0.00    -0.572 OA
ENDBRANCH  26  27
ENDBRANCH  25  26
ENDBRANCH   3  25
BRANCH   5  31
ATOM     31  O3  SGN d5702      65.254  41.612  32.167  0.00  0.00    -0.391 OA
ATOM     32  H   SGN d5702      64.920  41.129  31.395  0.00  0.00     0.210 HD
ENDBRANCH   5  31
BRANCH   2  33
ATOM     33  N   SGN d5702      63.316  43.440  33.030  0.00  0.00    -0.189 NA
ATOM     34  H   SGN d5702      62.458  43.748  33.490  0.00  0.00     0.143 HD
BRANCH  33  35
ATOM     35  S1  SGN d5702      64.228  44.862  32.513  0.00  0.00     0.183 S 
ATOM     36  O1S SGN d5702      64.106  44.986  31.074  0.00  0.00    -0.582 OA
ATOM     37  O2S SGN d5702      65.607  44.656  32.811  0.00  0.00    -0.582 OA
ATOM     38  O3S SGN d5702      63.650  45.971  33.248  0.00  0.00    -0.582 OA
ENDBRANCH  33  35
ENDBRANCH   2  33
BRANCH   6  39
ATOM     39  O1  SGN d5702      61.941  41.795  34.801  0.00  0.00    -0.369 OA
ATOM     40  H   SGN d5702      62.070  41.163  34.077  0.00  0.00     0.212 HD
ENDBRANCH   6  39
TORSDOF 14
ENDMDL
MODEL 15
REMARK VINA RESULT:      -0.9      3.445      7.447
REMARK  14 active torsions:
REMARK  status: ('A' for Active; 'I' for Inactive)
REMARK    1  A    between atoms: C5_1  and  C6_23 
REMARK    2  A    between atoms: S2_5  and  O6_7 
REMARK    3  A    between atoms: O1_6  and  C1_35 
REMARK    4  A    between atoms: O6_7  and  C6_21 
REMARK    5  A    between atoms: O2_9  and  C2_28 
REMARK    6  A    between atoms: O2_9  and  S_13 
REMARK    7  A    between atoms: C3_10  and  O3_20 
REMARK    8  A    between atoms: C1_11  and  O4_12 
REMARK    9  A    between atoms: O4_12  and  C4_19 
REMARK   10  A    between atoms: C2_15  and  N_29 
REMARK   11  A    between atoms: C5_17  and  C6_21 
REMARK   12  A    between atoms: C6_23  and  O61_33 
REMARK   13  A    between atoms: O3_24  and  C3_26 
REMARK   14  A    between atoms: S1_27  and  N_29 
ROOT
ATOM      1  O5  SGN d5702      61.722  39.578  37.295  0.00  0.00    -0.350 OA
ATOM      2  C2  SGN d5702      61.788  41.952  36.945  0.00  0.00     0.160 C 
ATOM      3  C5  SGN d5702      63.086  39.417  36.989  0.00  0.00     0.181 C 
ATOM      4  C4  SGN d5702      63.837  40.718  37.337  0.00  0.00     0.186 C 
ATOM      5  C3  SGN d5702      63.219  41.859  36.486  0.00  0.00     0.173 C 
ATOM      6  C1  SGN d5702      61.052  40.659  36.642  0.00  0.00     0.278 C 
ENDROOT
BRANCH   4   7
ATOM      7  O4  SGN d5702      65.234  40.479  37.013  0.00  0.00    -0.348 OA
BRANCH   7   8
ATOM      8  C1  IDU d1623      66.340  40.693  37.865  0.00  0.00     0.294 C 
ATOM      9  O5  IDU d1623      66.064  40.386  39.270  0.00  0.00    -0.343 OA
ATOM     10  C5  IDU d1623      67.167  40.727  40.182  0.00  0.00     0.224 C 
ATOM     11  C4  IDU d1623      68.407  39.909  39.788  0.00  0.00     0.077 C 
ATOM     12  C3  IDU d1623      68.769  40.194  38.322  0.00  0.00     0.156 C 
ATOM     13  C2  IDU d1623      67.550  39.835  37.460  0.00  0.00     0.228 C 
BRANCH  10  14
ATOM     14  C6  IDU d1623      66.820  40.399  41.609  0.00  0.00     0.170 C 
ATOM     15  O62 IDU d1623      66.829  41.320  42.440  0.00  0.00    -0.648 OA
BRANCH  14  16
ATOM     16  O61 IDU d1623      66.543  39.213  41.881  0.00  0.00    -0.774 OA
ENDBRANCH  14  16
ENDBRANCH  10  14
BRANCH  12  18
ATOM     18  O3  IDU d1623      69.081  41.552  38.173  0.00  0.00    -0.393 OA
ATOM     19  H   IDU d1623      69.625  41.842  38.922  0.00  0.00     0.210 HD
ENDBRANCH  12  18
BRANCH  13  20
ATOM     20  O2  IDU d1623      67.201  38.486  37.665  0.00  0.00    -0.244 OA
BRANCH  20  21
ATOM     21  S   IDU d1623      67.577  37.346  36.415  0.00  0.00     0.252 S 
ATOM     22  O3S IDU d1623      68.085  36.147  36.970  0.00  0.00    -0.572 OA
ATOM     23  O1S IDU d1623      68.488  37.997  35.523  0.00  0.00    -0.572 OA
ATOM     24  O2S IDU d1623      66.379  36.971  35.680  0.00  0.00    -0.572 OA
ENDBRANCH  20  21
ENDBRANCH  13  20
ENDBRANCH   7   8
ENDBRANCH   4   7
BRANCH   3  25
ATOM     25  C6  SGN d5702      63.582  38.248  37.781  0.00  0.00     0.227 C 
BRANCH  25  26
ATOM     26  O6  SGN d5702      63.407  38.665  39.127  0.00  0.00    -0.254 OA
BRANCH  26  27
ATOM     27  S2  SGN d5702      62.711  37.553  40.256  0.00  0.00     0.251 S 
ATOM     28  O4S SGN d5702      63.688  37.067  41.176  0.00  0.00    -0.572 OA
ATOM     29  O5S SGN d5702      62.161  36.447  39.524  0.00  0.00    -0.572 OA
ATOM     30  O6S SGN d5702      61.722  38.307  40.968  0.00  0.00    -0.572 OA
ENDBRANCH  26  27
ENDBRANCH  25  26
ENDBRANCH   3  25
BRANCH   5  31
ATOM     31  O3  SGN d5702      63.864  43.076  36.777  0.00  0.00    -0.391 OA
ATOM     32  H   SGN d5702      63.359  43.555  37.453  0.00  0.00     0.210 HD
ENDBRANCH   5  31
BRANCH   2  33
ATOM     33  N   SGN d5702      61.113  43.001  36.254  0.00  0.00    -0.189 NA
ATOM     34  H   SGN d5702      60.169  42.690  36.023  0.00  0.00     0.143 HD
BRANCH  33  35
ATOM     35  S1  SGN d5702      61.008  44.472  37.227  0.00  0.00     0.183 S 
ATOM     36  O1S SGN d5702      61.921  45.453  36.676  0.00  0.00    -0.582 OA
ATOM     37  O2S SGN d5702      61.442  44.177  38.553  0.00  0.00    -0.582 OA
ATOM     38  O3S SGN d5702      59.614  44.869  37.164  0.00  0.00    -0.582 OA
ENDBRANCH  33  35
ENDBRANCH   2  33
BRANCH   6  39
ATOM     39  O1  SGN d5702      60.941  40.410  35.261  0.00  0.00    -0.369 OA
ATOM     40  H   SGN d5702      60.160  39.859  35.095  0.00  0.00     0.212 HD
ENDBRANCH   6  39
TORSDOF 14
ENDMDL
MODEL 16
REMARK VINA RESULT:      -0.8      4.765      8.591
REMARK  14 active torsions:
REMARK  status: ('A' for Active; 'I' for Inactive)
REMARK    1  A    between atoms: C5_1  and  C6_23 
REMARK    2  A    between atoms: S2_5  and  O6_7 
REMARK    3  A    between atoms: O1_6  and  C1_35 
REMARK    4  A    between atoms: O6_7  and  C6_21 
REMARK    5  A    between atoms: O2_9  and  C2_28 
REMARK    6  A    between atoms: O2_9  and  S_13 
REMARK    7  A    between atoms: C3_10  and  O3_20 
REMARK    8  A    between atoms: C1_11  and  O4_12 
REMARK    9  A    between atoms: O4_12  and  C4_19 
REMARK   10  A    between atoms: C2_15  and  N_29 
REMARK   11  A    between atoms: C5_17  and  C6_21 
REMARK   12  A    between atoms: C6_23  and  O61_33 
REMARK   13  A    between atoms: O3_24  and  C3_26 
REMARK   14  A    between atoms: S1_27  and  N_29 
ROOT
ATOM      1  O5  SGN d5702      63.460  41.505  36.467  0.00  0.00    -0.350 OA
ATOM      2  C2  SGN d5702      62.760  43.510  35.347  0.00  0.00     0.160 C 
ATOM      3  C5  SGN d5702      64.149  42.213  37.469  0.00  0.00     0.181 C 
ATOM      4  C4  SGN d5702      63.485  43.592  37.659  0.00  0.00     0.186 C 
ATOM      5  C3  SGN d5702      63.570  44.345  36.304  0.00  0.00     0.173 C 
ATOM      6  C1  SGN d5702      63.385  42.137  35.186  0.00  0.00     0.278 C 
ENDROOT
BRANCH   4   7
ATOM      7  O4  SGN d5702      64.232  44.260  38.712  0.00  0.00    -0.348 OA
BRANCH   7   8
ATOM      8  C1  IDU d1623      63.699  44.796  39.906  0.00  0.00     0.294 C 
ATOM      9  O5  IDU d1623      63.145  43.782  40.805  0.00  0.00    -0.343 OA
ATOM     10  C5  IDU d1623      62.474  44.340  41.990  0.00  0.00     0.224 C 
ATOM     11  C4  IDU d1623      63.499  45.143  42.808  0.00  0.00     0.077 C 
ATOM     12  C3  IDU d1623      64.114  46.243  41.929  0.00  0.00     0.156 C 
ATOM     13  C2  IDU d1623      64.760  45.564  40.712  0.00  0.00     0.228 C 
BRANCH  10  14
ATOM     14  C6  IDU d1623      61.918  43.253  42.869  0.00  0.00     0.170 C 
ATOM     15  O62 IDU d1623      62.091  43.345  44.094  0.00  0.00    -0.648 OA
BRANCH  14  16
ATOM     16  O61 IDU d1623      61.311  42.313  42.316  0.00  0.00    -0.774 OA
ENDBRANCH  14  16
ENDBRANCH  10  14
BRANCH  12  18
ATOM     18  O3  IDU d1623      63.108  47.124  41.510  0.00  0.00    -0.393 OA
ATOM     19  H   IDU d1623      62.418  46.627  41.044  0.00  0.00     0.210 HD
ENDBRANCH  12  18
BRANCH  13  20
ATOM     20  O2  IDU d1623      65.723  44.631  41.142  0.00  0.00    -0.244 OA
BRANCH  20  21
ATOM     21  S   IDU d1623      67.391  45.097  41.091  0.00  0.00     0.252 S 
ATOM     22  O3S IDU d1623      67.545  46.448  41.483  0.00  0.00    -0.572 OA
ATOM     23  O1S IDU d1623      67.854  44.828  39.763  0.00  0.00    -0.572 OA
ATOM     24  O2S IDU d1623      68.175  44.315  42.034  0.00  0.00    -0.572 OA
ENDBRANCH  20  21
ENDBRANCH  13  20
ENDBRANCH   7   8
ENDBRANCH   4   7
BRANCH   3  25
ATOM     25  C6  SGN d5702      64.095  41.383  38.713  0.00  0.00     0.227 C 
BRANCH  25  26
ATOM     26  O6  SGN d5702      65.417  40.877  38.828  0.00  0.00    -0.254 OA
BRANCH  26  27
ATOM     27  S2  SGN d5702      65.742  39.272  38.268  0.00  0.00     0.251 S 
ATOM     28  O4S SGN d5702      64.637  38.743  37.536  0.00  0.00    -0.572 OA
ATOM     29  O5S SGN d5702      65.996  38.436  39.407  0.00  0.00    -0.572 OA
ATOM     30  O6S SGN d5702      66.873  39.399  37.397  0.00  0.00    -0.572 OA
ENDBRANCH  26  27
ENDBRANCH  25  26
ENDBRANCH   3  25
BRANCH   5  31
ATOM     31  O3  SGN d5702      62.963  45.609  36.421  0.00  0.00    -0.391 OA
ATOM     32  H   SGN d5702      62.816  45.811  37.358  0.00  0.00     0.210 HD
ENDBRANCH   5  31
BRANCH   2  33
ATOM     33  N   SGN d5702      62.731  44.122  34.059  0.00  0.00    -0.189 NA
ATOM     34  H   SGN d5702      61.952  44.779  34.024  0.00  0.00     0.143 HD
BRANCH  33  35
ATOM     35  S1  SGN d5702      64.228  44.993  33.708  0.00  0.00     0.183 S 
ATOM     36  O1S SGN d5702      63.896  46.370  33.403  0.00  0.00    -0.582 OA
ATOM     37  O2S SGN d5702      64.826  44.427  32.543  0.00  0.00    -0.582 OA
ATOM     38  O3S SGN d5702      65.046  44.837  34.896  0.00  0.00    -0.582 OA
ENDBRANCH  33  35
ENDBRANCH   2  33
BRANCH   6  39
ATOM     39  O1  SGN d5702      64.658  42.188  34.585  0.00  0.00    -0.369 OA
ATOM     40  H   SGN d5702      65.039  43.071  34.710  0.00  0.00     0.212 HD
ENDBRANCH   6  39
TORSDOF 14
ENDMDL
MODEL 17
REMARK VINA RESULT:      -0.8      3.027      7.579
REMARK  14 active torsions:
REMARK  status: ('A' for Active; 'I' for Inactive)
REMARK    1  A    between atoms: C5_1  and  C6_23 
REMARK    2  A    between atoms: S2_5  and  O6_7 
REMARK    3  A    between atoms: O1_6  and  C1_35 
REMARK    4  A    between atoms: O6_7  and  C6_21 
REMARK    5  A    between atoms: O2_9  and  C2_28 
REMARK    6  A    between atoms: O2_9  and  S_13 
REMARK    7  A    between atoms: C3_10  and  O3_20 
REMARK    8  A    between atoms: C1_11  and  O4_12 
REMARK    9  A    between atoms: O4_12  and  C4_19 
REMARK   10  A    between atoms: C2_15  and  N_29 
REMARK   11  A    between atoms: C5_17  and  C6_21 
REMARK   12  A    between atoms: C6_23  and  O61_33 
REMARK   13  A    between atoms: O3_24  and  C3_26 
REMARK   14  A    between atoms: S1_27  and  N_29 
ROOT
ATOM      1  O5  SGN d5702      64.635  41.231  33.254  0.00  0.00    -0.350 OA
ATOM      2  C2  SGN d5702      66.343  39.767  32.416  0.00  0.00     0.160 C 
ATOM      3  C5  SGN d5702      64.317  40.374  34.324  0.00  0.00     0.181 C 
ATOM      4  C4  SGN d5702      65.568  39.557  34.704  0.00  0.00     0.186 C 
ATOM      5  C3  SGN d5702      65.989  38.736  33.456  0.00  0.00     0.173 C 
ATOM      6  C1  SGN d5702      65.125  40.602  32.067  0.00  0.00     0.278 C 
ENDROOT
BRANCH   4   7
ATOM      7  O4  SGN d5702      65.176  38.709  35.819  0.00  0.00    -0.348 OA
BRANCH   7   8
ATOM      8  C1  IDU d1623      65.829  38.613  37.067  0.00  0.00     0.294 C 
ATOM      9  O5  IDU d1623      65.195  39.408  38.121  0.00  0.00    -0.343 OA
ATOM     10  C5  IDU d1623      65.940  39.416  39.390  0.00  0.00     0.224 C 
ATOM     11  C4  IDU d1623      66.034  37.976  39.920  0.00  0.00     0.077 C 
ATOM     12  C3  IDU d1623      66.708  37.082  38.867  0.00  0.00     0.156 C 
ATOM     13  C2  IDU d1623      65.875  37.164  37.579  0.00  0.00     0.228 C 
BRANCH  10  14
ATOM     14  C6  IDU d1623      65.247  40.255  40.429  0.00  0.00     0.170 C 
ATOM     15  O62 IDU d1623      65.905  40.635  41.410  0.00  0.00    -0.648 OA
BRANCH  14  16
ATOM     16  O61 IDU d1623      64.042  40.525  40.248  0.00  0.00    -0.774 OA
ENDBRANCH  14  16
ENDBRANCH  10  14
BRANCH  12  18
ATOM     18  O3  IDU d1623      68.009  37.540  38.629  0.00  0.00    -0.393 OA
ATOM     19  H   IDU d1623      68.403  37.844  39.462  0.00  0.00     0.210 HD
ENDBRANCH  12  18
BRANCH  13  20
ATOM     20  O2  IDU d1623      64.550  36.765  37.842  0.00  0.00    -0.244 OA
BRANCH  20  21
ATOM     21  S   IDU d1623      64.114  35.119  37.522  0.00  0.00     0.252 S 
ATOM     22  O3S IDU d1623      64.276  34.817  36.149  0.00  0.00    -0.572 OA
ATOM     23  O1S IDU d1623      62.773  34.948  37.994  0.00  0.00    -0.572 OA
ATOM     24  O2S IDU d1623      64.990  34.204  38.239  0.00  0.00    -0.572 OA
ENDBRANCH  20  21
ENDBRANCH  13  20
ENDBRANCH   7   8
ENDBRANCH   4   7
BRANCH   3  25
ATOM     25  C6  SGN d5702      63.839  41.235  35.452  0.00  0.00     0.227 C 
BRANCH  25  26
ATOM     26  O6  SGN d5702      62.652  41.819  34.940  0.00  0.00    -0.254 OA
BRANCH  26  27
ATOM     27  S2  SGN d5702      62.394  43.515  35.174  0.00  0.00     0.251 S 
ATOM     28  O4S SGN d5702      61.030  43.795  35.487  0.00  0.00    -0.572 OA
ATOM     29  O5S SGN d5702      62.751  44.200  33.964  0.00  0.00    -0.572 OA
ATOM     30  O6S SGN d5702      63.221  43.871  36.290  0.00  0.00    -0.572 OA
ENDBRANCH  26  27
ENDBRANCH  25  26
ENDBRANCH   3  25
BRANCH   5  31
ATOM     31  O3  SGN d5702      67.139  37.979  33.747  0.00  0.00    -0.391 OA
ATOM     32  H   SGN d5702      67.871  38.273  33.183  0.00  0.00     0.210 HD
ENDBRANCH   5  31
BRANCH   2  33
ATOM     33  N   SGN d5702      66.784  39.131  31.219  0.00  0.00    -0.189 NA
ATOM     34  H   SGN d5702      66.199  39.444  30.444  0.00  0.00     0.143 HD
BRANCH  33  35
ATOM     35  S1  SGN d5702      68.469  39.512  30.851  0.00  0.00     0.183 S 
ATOM     36  O1S SGN d5702      69.230  39.468  32.084  0.00  0.00    -0.582 OA
ATOM     37  O2S SGN d5702      68.540  40.846  30.351  0.00  0.00    -0.582 OA
ATOM     38  O3S SGN d5702      68.879  38.521  29.875  0.00  0.00    -0.582 OA
ENDBRANCH  33  35
ENDBRANCH   2  33
BRANCH   6  39
ATOM     39  O1  SGN d5702      64.108  39.848  31.451  0.00  0.00    -0.369 OA
ATOM     40  H   SGN d5702      63.391  39.695  32.086  0.00  0.00     0.212 HD
ENDBRANCH   6  39
TORSDOF 14
ENDMDL
MODEL 18
REMARK VINA RESULT:      -0.7      2.871      7.334
REMARK  14 active torsions:
REMARK  status: ('A' for Active; 'I' for Inactive)
REMARK    1  A    between atoms: C5_1  and  C6_23 
REMARK    2  A    between atoms: S2_5  and  O6_7 
REMARK    3  A    between atoms: O1_6  and  C1_35 
REMARK    4  A    between atoms: O6_7  and  C6_21 
REMARK    5  A    between atoms: O2_9  and  C2_28 
REMARK    6  A    between atoms: O2_9  and  S_13 
REMARK    7  A    between atoms: C3_10  and  O3_20 
REMARK    8  A    between atoms: C1_11  and  O4_12 
REMARK    9  A    between atoms: O4_12  and  C4_19 
REMARK   10  A    between atoms: C2_15  and  N_29 
REMARK   11  A    between atoms: C5_17  and  C6_21 
REMARK   12  A    between atoms: C6_23  and  O61_33 
REMARK   13  A    between atoms: O3_24  and  C3_26 
REMARK   14  A    between atoms: S1_27  and  N_29 
ROOT
ATOM      1  O5  SGN d5702      61.131  40.451  37.101  0.00  0.00    -0.350 OA
ATOM      2  C2  SGN d5702      62.652  41.581  35.627  0.00  0.00     0.160 C 
ATOM      3  C5  SGN d5702      61.969  39.329  37.232  0.00  0.00     0.181 C 
ATOM      4  C4  SGN d5702      63.434  39.769  37.035  0.00  0.00     0.186 C 
ATOM      5  C3  SGN d5702      63.555  40.376  35.611  0.00  0.00     0.173 C 
ATOM      6  C1  SGN d5702      61.213  41.159  35.861  0.00  0.00     0.278 C 
ENDROOT
BRANCH   4   7
ATOM      7  O4  SGN d5702      64.243  38.571  37.198  0.00  0.00    -0.348 OA
BRANCH   7   8
ATOM      8  C1  IDU d1623      65.264  38.374  38.154  0.00  0.00     0.294 C 
ATOM      9  O5  IDU d1623      65.018  37.238  39.045  0.00  0.00    -0.343 OA
ATOM     10  C5  IDU d1623      66.010  37.102  40.124  0.00  0.00     0.224 C 
ATOM     11  C4  IDU d1623      67.397  36.881  39.498  0.00  0.00     0.077 C 
ATOM     12  C3  IDU d1623      67.731  38.049  38.558  0.00  0.00     0.156 C 
ATOM     13  C2  IDU d1623      66.628  38.124  37.491  0.00  0.00     0.228 C 
BRANCH  10  14
ATOM     14  C6  IDU d1623      65.700  35.927  41.010  0.00  0.00     0.170 C 
ATOM     15  O62 IDU d1623      65.958  34.790  40.586  0.00  0.00    -0.648 OA
BRANCH  14  16
ATOM     16  O61 IDU d1623      65.196  36.160  42.128  0.00  0.00    -0.774 OA
ENDBRANCH  14  16
ENDBRANCH  10  14
BRANCH  12  18
ATOM     18  O3  IDU d1623      67.773  39.242  39.291  0.00  0.00    -0.393 OA
ATOM     19  H   IDU d1623      67.307  39.938  38.801  0.00  0.00     0.210 HD
ENDBRANCH  12  18
BRANCH  13  20
ATOM     20  O2  IDU d1623      66.547  36.898  36.803  0.00  0.00    -0.244 OA
BRANCH  20  21
ATOM     21  S   IDU d1623      66.688  36.920  35.076  0.00  0.00     0.252 S 
ATOM     22  O3S IDU d1623      65.875  35.918  34.496  0.00  0.00    -0.572 OA
ATOM     23  O1S IDU d1623      68.080  36.776  34.774  0.00  0.00    -0.572 OA
ATOM     24  O2S IDU d1623      66.213  38.184  34.535  0.00  0.00    -0.572 OA
ENDBRANCH  20  21
ENDBRANCH  13  20
ENDBRANCH   7   8
ENDBRANCH   4   7
BRANCH   3  25
ATOM     25  C6  SGN d5702      61.729  38.754  38.593  0.00  0.00     0.227 C 
BRANCH  25  26
ATOM     26  O6  SGN d5702      62.151  39.792  39.466  0.00  0.00    -0.254 OA
BRANCH  26  27
ATOM     27  S2  SGN d5702      62.678  39.370  41.060  0.00  0.00     0.251 S 
ATOM     28  O4S SGN d5702      61.881  40.009  42.057  0.00  0.00    -0.572 OA
ATOM     29  O5S SGN d5702      64.043  39.785  41.211  0.00  0.00    -0.572 OA
ATOM     30  O6S SGN d5702      62.505  37.950  41.151  0.00  0.00    -0.572 OA
ENDBRANCH  26  27
ENDBRANCH  25  26
ENDBRANCH   3  25
BRANCH   5  31
ATOM     31  O3  SGN d5702      64.875  40.806  35.386  0.00  0.00    -0.391 OA
ATOM     32  H   SGN d5702      64.888  41.771  35.283  0.00  0.00     0.210 HD
ENDBRANCH   5  31
BRANCH   2  33
ATOM     33  N   SGN d5702      62.703  42.254  34.371  0.00  0.00    -0.189 NA
ATOM     34  H   SGN d5702      61.769  42.255  33.960  0.00  0.00     0.143 HD
BRANCH  33  35
ATOM     35  S1  SGN d5702      63.255  43.923  34.538  0.00  0.00     0.183 S 
ATOM     36  O1S SGN d5702      64.684  43.912  34.778  0.00  0.00    -0.582 OA
ATOM     37  O2S SGN d5702      62.631  44.501  35.683  0.00  0.00    -0.582 OA
ATOM     38  O3S SGN d5702      62.875  44.574  33.298  0.00  0.00    -0.582 OA
ENDBRANCH  33  35
ENDBRANCH   2  33
BRANCH   6  39
ATOM     39  O1  SGN d5702      60.700  40.376  34.810  0.00  0.00    -0.369 OA
ATOM     40  H   SGN d5702      59.736  40.476  34.773  0.00  0.00     0.212 HD
ENDBRANCH   6  39
TORSDOF 14
ENDMDL
MODEL 19
REMARK VINA RESULT:      -0.6      3.404      7.023
REMARK  14 active torsions:
REMARK  status: ('A' for Active; 'I' for Inactive)
REMARK    1  A    between atoms: C5_1  and  C6_23 
REMARK    2  A    between atoms: S2_5  and  O6_7 
REMARK    3  A    between atoms: O1_6  and  C1_35 
REMARK    4  A    between atoms: O6_7  and  C6_21 
REMARK    5  A    between atoms: O2_9  and  C2_28 
REMARK    6  A    between atoms: O2_9  and  S_13 
REMARK    7  A    between atoms: C3_10  and  O3_20 
REMARK    8  A    between atoms: C1_11  and  O4_12 
REMARK    9  A    between atoms: O4_12  and  C4_19 
REMARK   10  A    between atoms: C2_15  and  N_29 
REMARK   11  A    between atoms: C5_17  and  C6_21 
REMARK   12  A    between atoms: C6_23  and  O61_33 
REMARK   13  A    between atoms: O3_24  and  C3_26 
REMARK   14  A    between atoms: S1_27  and  N_29 
ROOT
ATOM      1  O5  SGN d5702      63.500  41.162  36.428  0.00  0.00    -0.350 OA
ATOM      2  C2  SGN d5702      63.963  42.577  34.545  0.00  0.00     0.160 C 
ATOM      3  C5  SGN d5702      64.113  40.043  35.836  0.00  0.00     0.181 C 
ATOM      4  C4  SGN d5702      65.210  40.524  34.866  0.00  0.00     0.186 C 
ATOM      5  C3  SGN d5702      64.529  41.406  33.786  0.00  0.00     0.173 C 
ATOM      6  C1  SGN d5702      62.910  42.107  35.531  0.00  0.00     0.278 C 
ENDROOT
BRANCH   4   7
ATOM      7  O4  SGN d5702      65.810  39.324  34.304  0.00  0.00    -0.348 OA
BRANCH   7   8
ATOM      8  C1  IDU d1623      67.188  39.020  34.256  0.00  0.00     0.294 C 
ATOM      9  O5  IDU d1623      67.569  37.894  35.112  0.00  0.00    -0.343 OA
ATOM     10  C5  IDU d1623      69.019  37.652  35.167  0.00  0.00     0.224 C 
ATOM     11  C4  IDU d1623      69.521  37.320  33.752  0.00  0.00     0.077 C 
ATOM     12  C3  IDU d1623      69.170  38.471  32.797  0.00  0.00     0.156 C 
ATOM     13  C2  IDU d1623      67.646  38.662  32.833  0.00  0.00     0.228 C 
BRANCH  10  14
ATOM     14  C6  IDU d1623      69.348  36.492  36.068  0.00  0.00     0.170 C 
ATOM     15  O62 IDU d1623      69.525  35.379  35.549  0.00  0.00    -0.648 OA
BRANCH  14  16
ATOM     16  O61 IDU d1623      69.426  36.713  37.294  0.00  0.00    -0.774 OA
ENDBRANCH  14  16
ENDBRANCH  10  14
BRANCH  12  18
ATOM     18  O3  IDU d1623      69.811  39.642  33.220  0.00  0.00    -0.393 OA
ATOM     19  H   IDU d1623      70.192  39.502  34.101  0.00  0.00     0.210 HD
ENDBRANCH  12  18
BRANCH  13  20
ATOM     20  O2  IDU d1623      67.007  37.461  32.470  0.00  0.00    -0.244 OA
BRANCH  20  21
ATOM     21  S   IDU d1623      66.006  37.462  31.056  0.00  0.00     0.252 S 
ATOM     22  O3S IDU d1623      66.797  37.448  29.884  0.00  0.00    -0.572 OA
ATOM     23  O1S IDU d1623      65.151  38.607  31.158  0.00  0.00    -0.572 OA
ATOM     24  O2S IDU d1623      65.186  36.261  31.002  0.00  0.00    -0.572 OA
ENDBRANCH  20  21
ENDBRANCH  13  20
ENDBRANCH   7   8
ENDBRANCH   4   7
BRANCH   3  25
ATOM     25  C6  SGN d5702      64.666  39.204  36.945  0.00  0.00     0.227 C 
BRANCH  25  26
ATOM     26  O6  SGN d5702      63.516  38.564  37.479  0.00  0.00    -0.254 OA
BRANCH  26  27
ATOM     27  S2  SGN d5702      63.728  37.128  38.421  0.00  0.00     0.251 S 
ATOM     28  O4S SGN d5702      64.708  37.316  39.442  0.00  0.00    -0.572 OA
ATOM     29  O5S SGN d5702      64.154  36.071  37.548  0.00  0.00    -0.572 OA
ATOM     30  O6S SGN d5702      62.452  36.882  39.026  0.00  0.00    -0.572 OA
ENDBRANCH  26  27
ENDBRANCH  25  26
ENDBRANCH   3  25
BRANCH   5  31
ATOM     31  O3  SGN d5702      65.494  41.883  32.880  0.00  0.00    -0.391 OA
ATOM     32  H   SGN d5702      66.378  41.785  33.267  0.00  0.00     0.210 HD
ENDBRANCH   5  31
BRANCH   2  33
ATOM     33  N   SGN d5702      63.334  43.490  33.649  0.00  0.00    -0.189 NA
ATOM     34  H   SGN d5702      62.348  43.573  33.900  0.00  0.00     0.143 HD
BRANCH  33  35
ATOM     35  S1  SGN d5702      64.074  45.092  33.709  0.00  0.00     0.183 S 
ATOM     36  O1S SGN d5702      63.708  45.720  34.963  0.00  0.00    -0.582 OA
ATOM     37  O2S SGN d5702      63.534  45.888  32.656  0.00  0.00    -0.582 OA
ATOM     38  O3S SGN d5702      65.499  44.858  33.567  0.00  0.00    -0.582 OA
ENDBRANCH  33  35
ENDBRANCH   2  33
BRANCH   6  39
ATOM     39  O1  SGN d5702      61.784  41.548  34.897  0.00  0.00    -0.369 OA
ATOM     40  H   SGN d5702      61.585  42.051  34.091  0.00  0.00     0.212 HD
ENDBRANCH   6  39
TORSDOF 14
ENDMDL
MODEL 20
REMARK VINA RESULT:      -0.4      3.587      7.848
REMARK  14 active torsions:
REMARK  status: ('A' for Active; 'I' for Inactive)
REMARK    1  A    between atoms: C5_1  and  C6_23 
REMARK    2  A    between atoms: S2_5  and  O6_7 
REMARK    3  A    between atoms: O1_6  and  C1_35 
REMARK    4  A    between atoms: O6_7  and  C6_21 
REMARK    5  A    between atoms: O2_9  and  C2_28 
REMARK    6  A    between atoms: O2_9  and  S_13 
REMARK    7  A    between atoms: C3_10  and  O3_20 
REMARK    8  A    between atoms: C1_11  and  O4_12 
REMARK    9  A    between atoms: O4_12  and  C4_19 
REMARK   10  A    between atoms: C2_15  and  N_29 
REMARK   11  A    between atoms: C5_17  and  C6_21 
REMARK   12  A    between atoms: C6_23  and  O61_33 
REMARK   13  A    between atoms: O3_24  and  C3_26 
REMARK   14  A    between atoms: S1_27  and  N_29 
ROOT
ATOM      1  O5  SGN d5702      63.745  40.865  37.811  0.00  0.00    -0.350 OA
ATOM      2  C2  SGN d5702      63.898  41.270  35.450  0.00  0.00     0.160 C 
ATOM      3  C5  SGN d5702      64.266  39.563  37.700  0.00  0.00     0.181 C 
ATOM      4  C4  SGN d5702      65.196  39.496  36.472  0.00  0.00     0.186 C 
ATOM      5  C3  SGN d5702      64.348  39.852  35.221  0.00  0.00     0.173 C 
ATOM      6  C1  SGN d5702      63.015  41.351  36.681  0.00  0.00     0.278 C 
ENDROOT
BRANCH   4   7
ATOM      7  O4  SGN d5702      65.709  38.136  36.425  0.00  0.00    -0.348 OA
BRANCH   7   8
ATOM      8  C1  IDU d1623      67.069  37.754  36.415  0.00  0.00     0.294 C 
ATOM      9  O5  IDU d1623      67.605  37.470  37.748  0.00  0.00    -0.343 OA
ATOM     10  C5  IDU d1623      69.051  37.197  37.762  0.00  0.00     0.224 C 
ATOM     11  C4  IDU d1623      69.330  35.954  36.900  0.00  0.00     0.077 C 
ATOM     12  C3  IDU d1623      68.806  36.187  35.474  0.00  0.00     0.156 C 
ATOM     13  C2  IDU d1623      67.303  36.491  35.571  0.00  0.00     0.228 C 
BRANCH  10  14
ATOM     14  C6  IDU d1623      69.545  36.923  39.157  0.00  0.00     0.170 C 
ATOM     15  O62 IDU d1623      70.000  37.872  39.814  0.00  0.00    -0.648 OA
BRANCH  14  16
ATOM     16  O61 IDU d1623      69.472  35.751  39.578  0.00  0.00    -0.774 OA
ENDBRANCH  14  16
ENDBRANCH  10  14
BRANCH  12  18
ATOM     18  O3  IDU d1623      69.480  37.272  34.900  0.00  0.00    -0.393 OA
ATOM     19  H   IDU d1623      70.408  37.261  35.182  0.00  0.00     0.210 HD
ENDBRANCH  12  18
BRANCH  13  20
ATOM     20  O2  IDU d1623      66.641  35.425  36.210  0.00  0.00    -0.244 OA
BRANCH  20  21
ATOM     21  S   IDU d1623      65.833  34.254  35.220  0.00  0.00     0.252 S 
ATOM     22  O3S IDU d1623      64.881  34.881  34.382  0.00  0.00    -0.572 OA
ATOM     23  O1S IDU d1623      65.267  33.284  36.108  0.00  0.00    -0.572 OA
ATOM     24  O2S IDU d1623      66.775  33.591  34.331  0.00  0.00    -0.572 OA
ENDBRANCH  20  21
ENDBRANCH  13  20
ENDBRANCH   7   8
ENDBRANCH   4   7
BRANCH   3  25
ATOM     25  C6  SGN d5702      64.991  39.267  38.975  0.00  0.00     0.227 C 
BRANCH  25  26
ATOM     26  O6  SGN d5702      63.944  38.980  39.889  0.00  0.00    -0.254 OA
BRANCH  26  27
ATOM     27  S2  SGN d5702      64.336  38.183  41.375  0.00  0.00     0.251 S 
ATOM     28  O4S SGN d5702      65.651  38.522  41.815  0.00  0.00    -0.572 OA
ATOM     29  O5S SGN d5702      64.260  36.765  41.165  0.00  0.00    -0.572 OA
ATOM     30  O6S SGN d5702      63.377  38.666  42.326  0.00  0.00    -0.572 OA
ENDBRANCH  26  27
ENDBRANCH  25  26
ENDBRANCH   3  25
BRANCH   5  31
ATOM     31  O3  SGN d5702      65.157  39.817  34.070  0.00  0.00    -0.391 OA
ATOM     32  H   SGN d5702      65.631  40.659  33.982  0.00  0.00     0.210 HD
ENDBRANCH   5  31
BRANCH   2  33
ATOM     33  N   SGN d5702      63.131  41.731  34.340  0.00  0.00    -0.189 NA
ATOM     34  H   SGN d5702      62.147  41.761  34.609  0.00  0.00     0.143 HD
BRANCH  33  35
ATOM     35  S1  SGN d5702      63.628  43.343  33.816  0.00  0.00     0.183 S 
ATOM     36  O1S SGN d5702      62.546  44.268  34.089  0.00  0.00    -0.582 OA
ATOM     37  O2S SGN d5702      63.832  43.324  32.404  0.00  0.00    -0.582 OA
ATOM     38  O3S SGN d5702      64.841  43.626  34.558  0.00  0.00    -0.582 OA
ENDBRANCH  33  35
ENDBRANCH   2  33
BRANCH   6  39
ATOM     39  O1  SGN d5702      61.808  40.642  36.530  0.00  0.00    -0.369 OA
ATOM     40  H   SGN d5702      61.159  40.969  37.173  0.00  0.00     0.212 HD
ENDBRANCH   6  39
TORSDOF 14
ENDMDL
MODEL 21
REMARK VINA RESULT:      -0.1      3.153      7.314
REMARK  14 active torsions:
REMARK  status: ('A' for Active; 'I' for Inactive)
REMARK    1  A    between atoms: C5_1  and  C6_23 
REMARK    2  A    between atoms: S2_5  and  O6_7 
REMARK    3  A    between atoms: O1_6  and  C1_35 
REMARK    4  A    between atoms: O6_7  and  C6_21 
REMARK    5  A    between atoms: O2_9  and  C2_28 
REMARK    6  A    between atoms: O2_9  and  S_13 
REMARK    7  A    between atoms: C3_10  and  O3_20 
REMARK    8  A    between atoms: C1_11  and  O4_12 
REMARK    9  A    between atoms: O4_12  and  C4_19 
REMARK   10  A    between atoms: C2_15  and  N_29 
REMARK   11  A    between atoms: C5_17  and  C6_21 
REMARK   12  A    between atoms: C6_23  and  O61_33 
REMARK   13  A    between atoms: O3_24  and  C3_26 
REMARK   14  A    between atoms: S1_27  and  N_29 
ROOT
ATOM      1  O5  SGN d5702      62.198  40.900  36.920  0.00  0.00    -0.350 OA
ATOM      2  C2  SGN d5702      63.381  41.704  34.992  0.00  0.00     0.160 C 
ATOM      3  C5  SGN d5702      62.999  39.748  37.027  0.00  0.00     0.181 C 
ATOM      4  C4  SGN d5702      64.395  40.049  36.444  0.00  0.00     0.186 C 
ATOM      5  C3  SGN d5702      64.207  40.445  34.955  0.00  0.00     0.173 C 
ATOM      6  C1  SGN d5702      62.019  41.424  35.601  0.00  0.00     0.278 C 
ENDROOT
BRANCH   4   7
ATOM      7  O4  SGN d5702      65.172  38.830  36.600  0.00  0.00    -0.348 OA
BRANCH   7   8
ATOM      8  C1  IDU d1623      66.488  38.733  37.104  0.00  0.00     0.294 C 
ATOM      9  O5  IDU d1623      66.631  37.751  38.180  0.00  0.00    -0.343 OA
ATOM     10  C5  IDU d1623      67.966  37.735  38.798  0.00  0.00     0.224 C 
ATOM     11  C4  IDU d1623      69.005  37.368  37.725  0.00  0.00     0.077 C 
ATOM     12  C3  IDU d1623      68.924  38.372  36.564  0.00  0.00     0.156 C 
ATOM     13  C2  IDU d1623      67.491  38.334  36.010  0.00  0.00     0.228 C 
BRANCH  10  14
ATOM     14  C6  IDU d1623      68.049  36.715  39.901  0.00  0.00     0.170 C 
ATOM     15  O62 IDU d1623      67.784  37.080  41.057  0.00  0.00    -0.648 OA
BRANCH  14  16
ATOM     16  O61 IDU d1623      68.383  35.553  39.593  0.00  0.00    -0.774 OA
ENDBRANCH  14  16
ENDBRANCH  10  14
BRANCH  12  18
ATOM     18  O3  IDU d1623      69.223  39.657  37.036  0.00  0.00    -0.393 OA
ATOM     19  H   IDU d1623      69.922  39.600  37.706  0.00  0.00     0.210 HD
ENDBRANCH  12  18
BRANCH  13  20
ATOM     20  O2  IDU d1623      67.174  37.025  35.600  0.00  0.00    -0.244 OA
BRANCH  20  21
ATOM     21  S   IDU d1623      66.655  36.785  33.964  0.00  0.00     0.252 S 
ATOM     22  O3S IDU d1623      66.099  37.974  33.437  0.00  0.00    -0.572 OA
ATOM     23  O1S IDU d1623      65.742  35.682  33.980  0.00  0.00    -0.572 OA
ATOM     24  O2S IDU d1623      67.783  36.455  33.107  0.00  0.00    -0.572 OA
ENDBRANCH  20  21
ENDBRANCH  13  20
ENDBRANCH   7   8
ENDBRANCH   4   7
BRANCH   3  25
ATOM     25  C6  SGN d5702      63.058  39.384  38.477  0.00  0.00     0.227 C 
BRANCH  25  26
ATOM     26  O6  SGN d5702      62.269  38.206  38.553  0.00  0.00    -0.254 OA
BRANCH  26  27
ATOM     27  S2  SGN d5702      63.035  36.722  39.009  0.00  0.00     0.251 S 
ATOM     28  O4S SGN d5702      64.041  36.940  39.997  0.00  0.00    -0.572 OA
ATOM     29  O5S SGN d5702      63.638  36.145  37.841  0.00  0.00    -0.572 OA
ATOM     30  O6S SGN d5702      61.990  35.913  39.564  0.00  0.00    -0.572 OA
ENDBRANCH  26  27
ENDBRANCH  25  26
ENDBRANCH   3  25
BRANCH   5  31
ATOM     31  O3  SGN d5702      65.455  40.744  34.379  0.00  0.00    -0.391 OA
ATOM     32  H   SGN d5702      65.696  41.660  34.587  0.00  0.00     0.210 HD
ENDBRANCH   5  31
BRANCH   2  33
ATOM     33  N   SGN d5702      63.166  42.193  33.670  0.00  0.00    -0.189 NA
ATOM     34  H   SGN d5702      62.162  42.293  33.514  0.00  0.00     0.143 HD
BRANCH  33  35
ATOM     35  S1  SGN d5702      63.942  43.758  33.410  0.00  0.00     0.183 S 
ATOM     36  O1S SGN d5702      62.908  44.758  33.226  0.00  0.00    -0.582 OA
ATOM     37  O2S SGN d5702      64.703  43.700  32.205  0.00  0.00    -0.582 OA
ATOM     38  O3S SGN d5702      64.762  43.975  34.586  0.00  0.00    -0.582 OA
ENDBRANCH  33  35
ENDBRANCH   2  33
BRANCH   6  39
ATOM     39  O1  SGN d5702      61.246  40.543  34.820  0.00  0.00    -0.369 OA
ATOM     40  H   SGN d5702      60.310  40.639  35.057  0.00  0.00     0.212 HD
ENDBRANCH   6  39
TORSDOF 14
ENDMDL
MODEL 22
REMARK VINA RESULT:      -0.0      2.722      7.257
REMARK  14 active torsions:
REMARK  status: ('A' for Active; 'I' for Inactive)
REMARK    1  A    between atoms: C5_1  and  C6_23 
REMARK    2  A    between atoms: S2_5  and  O6_7 
REMARK    3  A    between atoms: O1_6  and  C1_35 
REMARK    4  A    between atoms: O6_7  and  C6_21 
REMARK    5  A    between atoms: O2_9  and  C2_28 
REMARK    6  A    between atoms: O2_9  and  S_13 
REMARK    7  A    between atoms: C3_10  and  O3_20 
REMARK    8  A    between atoms: C1_11  and  O4_12 
REMARK    9  A    between atoms: O4_12  and  C4_19 
REMARK   10  A    between atoms: C2_15  and  N_29 
REMARK   11  A    between atoms: C5_17  and  C6_21 
REMARK   12  A    between atoms: C6_23  and  O61_33 
REMARK   13  A    between atoms: O3_24  and  C3_26 
REMARK   14  A    between atoms: S1_27  and  N_29 
ROOT
ATOM      1  O5  SGN d5702      63.633  42.073  33.243  0.00  0.00    -0.350 OA
ATOM      2  C2  SGN d5702      65.845  41.169  33.022  0.00  0.00     0.160 C 
ATOM      3  C5  SGN d5702      63.387  41.383  34.444  0.00  0.00     0.181 C 
ATOM      4  C4  SGN d5702      64.726  41.147  35.172  0.00  0.00     0.186 C 
ATOM      5  C3  SGN d5702      65.628  40.301  34.233  0.00  0.00     0.173 C 
ATOM      6  C1  SGN d5702      64.526  41.439  32.323  0.00  0.00     0.278 C 
ENDROOT
BRANCH   4   7
ATOM      7  O4  SGN d5702      64.400  40.448  36.405  0.00  0.00    -0.348 OA
BRANCH   7   8
ATOM      8  C1  IDU d1623      64.942  40.709  37.683  0.00  0.00     0.294 C 
ATOM      9  O5  IDU d1623      63.950  41.181  38.652  0.00  0.00    -0.343 OA
ATOM     10  C5  IDU d1623      64.526  41.578  39.947  0.00  0.00     0.224 C 
ATOM     11  C4  IDU d1623      65.213  40.356  40.579  0.00  0.00     0.077 C 
ATOM     12  C3  IDU d1623      66.284  39.812  39.621  0.00  0.00     0.156 C 
ATOM     13  C2  IDU d1623      65.590  39.457  38.296  0.00  0.00     0.228 C 
BRANCH  10  14
ATOM     14  C6  IDU d1623      63.463  42.063  40.895  0.00  0.00     0.170 C 
ATOM     15  O62 IDU d1623      63.442  43.269  41.183  0.00  0.00    -0.648 OA
BRANCH  14  16
ATOM     16  O61 IDU d1623      62.657  41.222  41.344  0.00  0.00    -0.774 OA
ENDBRANCH  14  16
ENDBRANCH  10  14
BRANCH  12  18
ATOM     18  O3  IDU d1623      67.259  40.794  39.405  0.00  0.00    -0.393 OA
ATOM     19  H   IDU d1623      68.132  40.374  39.346  0.00  0.00     0.210 HD
ENDBRANCH  12  18
BRANCH  13  20
ATOM     20  O2  IDU d1623      64.567  38.519  38.531  0.00  0.00    -0.244 OA
BRANCH  20  21
ATOM     21  S   IDU d1623      64.927  36.841  38.300  0.00  0.00     0.252 S 
ATOM     22  O3S IDU d1623      66.048  36.683  37.451  0.00  0.00    -0.572 OA
ATOM     23  O1S IDU d1623      63.735  36.228  37.796  0.00  0.00    -0.572 OA
ATOM     24  O2S IDU d1623      65.288  36.211  39.561  0.00  0.00    -0.572 OA
ENDBRANCH  20  21
ENDBRANCH  13  20
ENDBRANCH   7   8
ENDBRANCH   4   7
BRANCH   3  25
ATOM     25  C6  SGN d5702      62.446  42.222  35.251  0.00  0.00     0.227 C 
BRANCH  25  26
ATOM     26  O6  SGN d5702      62.629  43.525  34.719  0.00  0.00    -0.254 OA
BRANCH  26  27
ATOM     27  S2  SGN d5702      63.358  44.735  35.720  0.00  0.00     0.251 S 
ATOM     28  O4S SGN d5702      64.425  44.192  36.497  0.00  0.00    -0.572 OA
ATOM     29  O5S SGN d5702      62.354  45.261  36.601  0.00  0.00    -0.572 OA
ATOM     30  O6S SGN d5702      63.880  45.712  34.811  0.00  0.00    -0.572 OA
ENDBRANCH  26  27
ENDBRANCH  25  26
ENDBRANCH   3  25
BRANCH   5  31
ATOM     31  O3  SGN d5702      66.872  40.067  34.848  0.00  0.00    -0.391 OA
ATOM     32  H   SGN d5702      67.098  39.127  34.773  0.00  0.00     0.210 HD
ENDBRANCH   5  31
BRANCH   2  33
ATOM     33  N   SGN d5702      66.698  40.510  32.088  0.00  0.00    -0.189 NA
ATOM     34  H   SGN d5702      66.346  40.678  31.145  0.00  0.00     0.143 HD
BRANCH  33  35
ATOM     35  S1  SGN d5702      68.363  41.091  32.188  0.00  0.00     0.183 S 
ATOM     36  O1S SGN d5702      68.832  41.374  30.846  0.00  0.00    -0.582 OA
ATOM     37  O2S SGN d5702      69.181  40.050  32.718  0.00  0.00    -0.582 OA
ATOM     38  O3S SGN d5702      68.306  42.258  33.047  0.00  0.00    -0.582 OA
ENDBRANCH  33  35
ENDBRANCH   2  33
BRANCH   6  39
ATOM     39  O1  SGN d5702      63.943  40.272  31.793  0.00  0.00    -0.369 OA
ATOM     40  H   SGN d5702      64.640  39.689  31.454  0.00  0.00     0.212 HD
ENDBRANCH   6  39
TORSDOF 14
ENDMDL
MODEL 23
REMARK VINA RESULT:       0.2      3.012      7.994
REMARK  14 active torsions:
REMARK  status: ('A' for Active; 'I' for Inactive)
REMARK    1  A    between atoms: C5_1  and  C6_23 
REMARK    2  A    between atoms: S2_5  and  O6_7 
REMARK    3  A    between atoms: O1_6  and  C1_35 
REMARK    4  A    between atoms: O6_7  and  C6_21 
REMARK    5  A    between atoms: O2_9  and  C2_28 
REMARK    6  A    between atoms: O2_9  and  S_13 
REMARK    7  A    between atoms: C3_10  and  O3_20 
REMARK    8  A    between atoms: C1_11  and  O4_12 
REMARK    9  A    between atoms: O4_12  and  C4_19 
REMARK   10  A    between atoms: C2_15  and  N_29 
REMARK   11  A    between atoms: C5_17  and  C6_21 
REMARK   12  A    between atoms: C6_23  and  O61_33 
REMARK   13  A    between atoms: O3_24  and  C3_26 
REMARK   14  A    between atoms: S1_27  and  N_29 
ROOT
ATOM      1  O5  SGN d5702      64.275  41.375  36.689  0.00  0.00    -0.350 OA
ATOM      2  C2  SGN d5702      66.182  40.015  37.214  0.00  0.00     0.160 C 
ATOM      3  C5  SGN d5702      63.374  40.479  37.293  0.00  0.00     0.181 C 
ATOM      4  C4  SGN d5702      64.100  39.715  38.418  0.00  0.00     0.186 C 
ATOM      5  C3  SGN d5702      65.283  38.944  37.774  0.00  0.00     0.173 C 
ATOM      6  C1  SGN d5702      65.460  40.798  36.134  0.00  0.00     0.278 C 
ENDROOT
BRANCH   4   7
ATOM      7  O4  SGN d5702      63.113  38.824  39.007  0.00  0.00    -0.348 OA
BRANCH   7   8
ATOM      8  C1  IDU d1623      63.045  38.426  40.360  0.00  0.00     0.294 C 
ATOM      9  O5  IDU d1623      61.732  38.645  40.969  0.00  0.00    -0.343 OA
ATOM     10  C5  IDU d1623      61.688  38.354  42.411  0.00  0.00     0.224 C 
ATOM     11  C4  IDU d1623      62.033  36.871  42.628  0.00  0.00     0.077 C 
ATOM     12  C3  IDU d1623      63.414  36.569  42.026  0.00  0.00     0.156 C 
ATOM     13  C2  IDU d1623      63.364  36.932  40.534  0.00  0.00     0.228 C 
BRANCH  10  14
ATOM     14  C6  IDU d1623      60.319  38.607  42.981  0.00  0.00     0.170 C 
ATOM     15  O62 IDU d1623      59.417  37.796  42.721  0.00  0.00    -0.648 OA
BRANCH  14  16
ATOM     16  O61 IDU d1623      60.163  39.624  43.687  0.00  0.00    -0.774 OA
ENDBRANCH  14  16
ENDBRANCH  10  14
BRANCH  12  18
ATOM     18  O3  IDU d1623      64.386  37.339  42.676  0.00  0.00    -0.393 OA
ATOM     19  H   IDU d1623      63.955  37.952  43.291  0.00  0.00     0.210 HD
ENDBRANCH  12  18
BRANCH  13  20
ATOM     20  O2  IDU d1623      62.340  36.203  39.900  0.00  0.00    -0.244 OA
BRANCH  20  21
ATOM     21  S   IDU d1623      62.780  35.119  38.622  0.00  0.00     0.252 S 
ATOM     22  O3S IDU d1623      63.739  35.715  37.768  0.00  0.00    -0.572 OA
ATOM     23  O1S IDU d1623      61.567  34.753  37.955  0.00  0.00    -0.572 OA
ATOM     24  O2S IDU d1623      63.409  33.920  39.154  0.00  0.00    -0.572 OA
ENDBRANCH  20  21
ENDBRANCH  13  20
ENDBRANCH   7   8
ENDBRANCH   4   7
BRANCH   3  25
ATOM     25  C6  SGN d5702      62.226  41.289  37.809  0.00  0.00     0.227 C 
BRANCH  25  26
ATOM     26  O6  SGN d5702      61.440  41.522  36.650  0.00  0.00    -0.254 OA
BRANCH  26  27
ATOM     27  S2  SGN d5702      61.113  43.157  36.184  0.00  0.00     0.251 S 
ATOM     28  O4S SGN d5702      61.996  43.589  35.150  0.00  0.00    -0.572 OA
ATOM     29  O5S SGN d5702      61.285  43.999  37.333  0.00  0.00    -0.572 OA
ATOM     30  O6S SGN d5702      59.768  43.146  35.688  0.00  0.00    -0.572 OA
ENDBRANCH  26  27
ENDBRANCH  25  26
ENDBRANCH   3  25
BRANCH   5  31
ATOM     31  O3  SGN d5702      65.989  38.238  38.766  0.00  0.00    -0.391 OA
ATOM     32  H   SGN d5702      66.730  38.778  39.082  0.00  0.00     0.210 HD
ENDBRANCH   5  31
BRANCH   2  33
ATOM     33  N   SGN d5702      67.338  39.429  36.619  0.00  0.00    -0.189 NA
ATOM     34  H   SGN d5702      67.326  39.620  35.617  0.00  0.00     0.143 HD
BRANCH  33  35
ATOM     35  S1  SGN d5702      68.833  40.073  37.305  0.00  0.00     0.183 S 
ATOM     36  O1S SGN d5702      68.534  40.644  38.603  0.00  0.00    -0.582 OA
ATOM     37  O2S SGN d5702      69.304  41.129  36.469  0.00  0.00    -0.582 OA
ATOM     38  O3S SGN d5702      69.744  38.946  37.357  0.00  0.00    -0.582 OA
ENDBRANCH  33  35
ENDBRANCH   2  33
BRANCH   6  39
ATOM     39  O1  SGN d5702      65.146  40.009  35.011  0.00  0.00    -0.369 OA
ATOM     40  H   SGN d5702      65.411  40.477  34.203  0.00  0.00     0.212 HD
ENDBRANCH   6  39
TORSDOF 14
ENDMDL
MODEL 24
REMARK VINA RESULT:       0.2      2.879      7.469
REMARK  14 active torsions:
REMARK  status: ('A' for Active; 'I' for Inactive)
REMARK    1  A    between atoms: C5_1  and  C6_23 
REMARK    2  A    between atoms: S2_5  and  O6_7 
REMARK    3  A    between atoms: O1_6  and  C1_35 
REMARK    4  A    between atoms: O6_7  and  C6_21 
REMARK    5  A    between atoms: O2_9  and  C2_28 
REMARK    6  A    between atoms: O2_9  and  S_13 
REMARK    7  A    between atoms: C3_10  and  O3_20 
REMARK    8  A    between atoms: C1_11  and  O4_12 
REMARK    9  A    between atoms: O4_12  and  C4_19 
REMARK   10  A    between atoms: C2_15  and  N_29 
REMARK   11  A    between atoms: C5_17  and  C6_21 
REMARK   12  A    between atoms: C6_23  and  O61_33 
REMARK   13  A    between atoms: O3_24  and  C3_26 
REMARK   14  A    between atoms: S1_27  and  N_29 
ROOT
ATOM      1  O5  SGN d5702      64.052  42.281  35.399  0.00  0.00    -0.350 OA
ATOM      2  C2  SGN d5702      65.256  40.206  35.323  0.00  0.00     0.160 C 
ATOM      3  C5  SGN d5702      63.273  41.878  36.500  0.00  0.00     0.181 C 
ATOM      4  C4  SGN d5702      64.071  40.858  37.336  0.00  0.00     0.186 C 
ATOM      5  C3  SGN d5702      64.388  39.645  36.419  0.00  0.00     0.173 C 
ATOM      6  C1  SGN d5702      64.489  41.241  34.521  0.00  0.00     0.278 C 
ENDROOT
BRANCH   4   7
ATOM      7  O4  SGN d5702      63.220  40.497  38.458  0.00  0.00    -0.348 OA
BRANCH   7   8
ATOM      8  C1  IDU d1623      63.494  40.725  39.825  0.00  0.00     0.294 C 
ATOM      9  O5  IDU d1623      62.334  41.199  40.582  0.00  0.00    -0.343 OA
ATOM     10  C5  IDU d1623      62.640  41.561  41.975  0.00  0.00     0.224 C 
ATOM     11  C4  IDU d1623      63.167  40.316  42.707  0.00  0.00     0.077 C 
ATOM     12  C3  IDU d1623      64.402  39.770  41.974  0.00  0.00     0.156 C 
ATOM     13  C2  IDU d1623      63.987  39.451  40.530  0.00  0.00     0.228 C 
BRANCH  10  14
ATOM     14  C6  IDU d1623      61.414  42.049  42.698  0.00  0.00     0.170 C 
ATOM     15  O62 IDU d1623      60.856  41.277  43.492  0.00  0.00    -0.648 OA
BRANCH  14  16
ATOM     16  O61 IDU d1623      61.022  43.209  42.457  0.00  0.00    -0.774 OA
ENDBRANCH  14  16
ENDBRANCH  10  14
BRANCH  12  18
ATOM     18  O3  IDU d1623      65.415  40.737  41.981  0.00  0.00    -0.393 OA
ATOM     19  H   IDU d1623      65.411  41.203  42.832  0.00  0.00     0.210 HD
ENDBRANCH  12  18
BRANCH  13  20
ATOM     20  O2  IDU d1623      62.923  38.528  40.532  0.00  0.00    -0.244 OA
BRANCH  20  21
ATOM     21  S   IDU d1623      63.089  37.088  39.584  0.00  0.00     0.252 S 
ATOM     22  O3S IDU d1623      62.362  36.022  40.164  0.00  0.00    -0.572 OA
ATOM     23  O1S IDU d1623      64.492  36.830  39.467  0.00  0.00    -0.572 OA
ATOM     24  O2S IDU d1623      62.529  37.277  38.254  0.00  0.00    -0.572 OA
ENDBRANCH  20  21
ENDBRANCH  13  20
ENDBRANCH   7   8
ENDBRANCH   4   7
BRANCH   3  25
ATOM     25  C6  SGN d5702      62.939  43.111  37.280  0.00  0.00     0.227 C 
BRANCH  25  26
ATOM     26  O6  SGN d5702      61.537  43.004  37.479  0.00  0.00    -0.254 OA
BRANCH  26  27
ATOM     27  S2  SGN d5702      60.485  43.309  36.139  0.00  0.00     0.251 S 
ATOM     28  O4S SGN d5702      59.883  42.104  35.666  0.00  0.00    -0.572 OA
ATOM     29  O5S SGN d5702      61.255  43.898  35.081  0.00  0.00    -0.572 OA
ATOM     30  O6S SGN d5702      59.467  44.180  36.650  0.00  0.00    -0.572 OA
ENDBRANCH  26  27
ENDBRANCH  25  26
ENDBRANCH   3  25
BRANCH   5  31
ATOM     31  O3  SGN d5702      65.130  38.687  37.134  0.00  0.00    -0.391 OA
ATOM     32  H   SGN d5702      65.660  38.161  36.515  0.00  0.00     0.210 HD
ENDBRANCH   5  31
BRANCH   2  33
ATOM     33  N   SGN d5702      65.648  39.171  34.425  0.00  0.00    -0.189 NA
ATOM     34  H   SGN d5702      65.275  39.380  33.498  0.00  0.00     0.143 HD
BRANCH  33  35
ATOM     35  S1  SGN d5702      67.404  39.021  34.314  0.00  0.00     0.183 S 
ATOM     36  O1S SGN d5702      68.005  40.105  35.065  0.00  0.00    -0.582 OA
ATOM     37  O2S SGN d5702      67.793  39.177  32.950  0.00  0.00    -0.582 OA
ATOM     38  O3S SGN d5702      67.708  37.705  34.841  0.00  0.00    -0.582 OA
ENDBRANCH  33  35
ENDBRANCH   2  33
BRANCH   6  39
ATOM     39  O1  SGN d5702      63.396  40.688  33.827  0.00  0.00    -0.369 OA
ATOM     40  H   SGN d5702      62.744  40.357  34.464  0.00  0.00     0.212 HD
ENDBRANCH   6  39
TORSDOF 14
ENDMDL
MODEL 25
REMARK VINA RESULT:       0.3      3.531      7.110
REMARK  14 active torsions:
REMARK  status: ('A' for Active; 'I' for Inactive)
REMARK    1  A    between atoms: C5_1  and  C6_23 
REMARK    2  A    between atoms: S2_5  and  O6_7 
REMARK    3  A    between atoms: O1_6  and  C1_35 
REMARK    4  A    between atoms: O6_7  and  C6_21 
REMARK    5  A    between atoms: O2_9  and  C2_28 
REMARK    6  A    between atoms: O2_9  and  S_13 
REMARK    7  A    between atoms: C3_10  and  O3_20 
REMARK    8  A    between atoms: C1_11  and  O4_12 
REMARK    9  A    between atoms: O4_12  and  C4_19 
REMARK   10  A    between atoms: C2_15  and  N_29 
REMARK   11  A    between atoms: C5_17  and  C6_21 
REMARK   12  A    between atoms: C6_23  and  O61_33 
REMARK   13  A    between atoms: O3_24  and  C3_26 
REMARK   14  A    between atoms: S1_27  and  N_29 
ROOT
ATOM      1  O5  SGN d5702      61.341  39.929  37.189  0.00  0.00    -0.350 OA
ATOM      2  C2  SGN d5702      61.959  42.248  37.135  0.00  0.00     0.160 C 
ATOM      3  C5  SGN d5702      62.679  39.493  37.183  0.00  0.00     0.181 C 
ATOM      4  C4  SGN d5702      63.564  40.573  37.837  0.00  0.00     0.186 C 
ATOM      5  C3  SGN d5702      63.412  41.873  37.004  0.00  0.00     0.173 C 
ATOM      6  C1  SGN d5702      61.080  41.171  36.529  0.00  0.00     0.278 C 
ENDROOT
BRANCH   4   7
ATOM      7  O4  SGN d5702      64.923  40.054  37.813  0.00  0.00    -0.348 OA
BRANCH   7   8
ATOM      8  C1  IDU d1623      65.791  39.927  38.920  0.00  0.00     0.294 C 
ATOM      9  O5  IDU d1623      66.371  38.590  39.057  0.00  0.00    -0.343 OA
ATOM     10  C5  IDU d1623      67.174  38.411  40.277  0.00  0.00     0.224 C 
ATOM     11  C4  IDU d1623      68.350  39.401  40.246  0.00  0.00     0.077 C 
ATOM     12  C3  IDU d1623      67.814  40.836  40.119  0.00  0.00     0.156 C 
ATOM     13  C2  IDU d1623      66.971  40.909  38.837  0.00  0.00     0.228 C 
BRANCH  10  14
ATOM     14  C6  IDU d1623      67.734  37.017  40.367  0.00  0.00     0.170 C 
ATOM     15  O62 IDU d1623      68.777  36.764  39.746  0.00  0.00    -0.648 OA
BRANCH  14  16
ATOM     16  O61 IDU d1623      67.115  36.188  41.065  0.00  0.00    -0.774 OA
ENDBRANCH  14  16
ENDBRANCH  10  14
BRANCH  12  18
ATOM     18  O3  IDU d1623      67.023  41.139  41.233  0.00  0.00    -0.393 OA
ATOM     19  H   IDU d1623      66.215  41.591  40.943  0.00  0.00     0.210 HD
ENDBRANCH  12  18
BRANCH  13  20
ATOM     20  O2  IDU d1623      67.755  40.538  37.728  0.00  0.00    -0.244 OA
BRANCH  20  21
ATOM     21  S   IDU d1623      67.992  41.704  36.468  0.00  0.00     0.252 S 
ATOM     22  O3S IDU d1623      68.569  41.096  35.328  0.00  0.00    -0.572 OA
ATOM     23  O1S IDU d1623      68.790  42.755  37.024  0.00  0.00    -0.572 OA
ATOM     24  O2S IDU d1623      66.720  42.255  36.028  0.00  0.00    -0.572 OA
ENDBRANCH  20  21
ENDBRANCH  13  20
ENDBRANCH   7   8
ENDBRANCH   4   7
BRANCH   3  25
ATOM     25  C6  SGN d5702      62.724  38.196  37.929  0.00  0.00     0.227 C 
BRANCH  25  26
ATOM     26  O6  SGN d5702      62.133  38.515  39.179  0.00  0.00    -0.254 OA
BRANCH  26  27
ATOM     27  S2  SGN d5702      62.836  37.861  40.620  0.00  0.00     0.251 S 
ATOM     28  O4S SGN d5702      63.425  38.884  41.421  0.00  0.00    -0.572 OA
ATOM     29  O5S SGN d5702      63.848  36.916  40.243  0.00  0.00    -0.572 OA
ATOM     30  O6S SGN d5702      61.745  37.266  41.335  0.00  0.00    -0.572 OA
ENDBRANCH  26  27
ENDBRANCH  25  26
ENDBRANCH   3  25
BRANCH   5  31
ATOM     31  O3  SGN d5702      64.193  42.898  37.570  0.00  0.00    -0.391 OA
ATOM     32  H   SGN d5702      63.613  43.603  37.898  0.00  0.00     0.210 HD
ENDBRANCH   5  31
BRANCH   2  33
ATOM     33  N   SGN d5702      61.697  43.462  36.434  0.00  0.00    -0.189 NA
ATOM     34  H   SGN d5702      60.863  43.336  35.859  0.00  0.00     0.143 HD
BRANCH  33  35
ATOM     35  S1  SGN d5702      61.431  44.817  37.535  0.00  0.00     0.183 S 
ATOM     36  O1S SGN d5702      61.845  44.416  38.865  0.00  0.00    -0.582 OA
ATOM     37  O2S SGN d5702      60.034  45.100  37.586  0.00  0.00    -0.582 OA
ATOM     38  O3S SGN d5702      62.209  45.911  36.985  0.00  0.00    -0.582 OA
ENDBRANCH  33  35
ENDBRANCH   2  33
BRANCH   6  39
ATOM     39  O1  SGN d5702      61.263  41.040  35.139  0.00  0.00    -0.369 OA
ATOM     40  H   SGN d5702      60.454  40.685  34.739  0.00  0.00     0.212 HD
ENDBRANCH   6  39
TORSDOF 14
ENDMDL
MODEL 26
REMARK VINA RESULT:       0.6      3.209      7.278
REMARK  14 active torsions:
REMARK  status: ('A' for Active; 'I' for Inactive)
REMARK    1  A    between atoms: C5_1  and  C6_23 
REMARK    2  A    between atoms: S2_5  and  O6_7 
REMARK    3  A    between atoms: O1_6  and  C1_35 
REMARK    4  A    between atoms: O6_7  and  C6_21 
REMARK    5  A    between atoms: O2_9  and  C2_28 
REMARK    6  A    between atoms: O2_9  and  S_13 
REMARK    7  A    between atoms: C3_10  and  O3_20 
REMARK    8  A    between atoms: C1_11  and  O4_12 
REMARK    9  A    between atoms: O4_12  and  C4_19 
REMARK   10  A    between atoms: C2_15  and  N_29 
REMARK   11  A    between atoms: C5_17  and  C6_21 
REMARK   12  A    between atoms: C6_23  and  O61_33 
REMARK   13  A    between atoms: O3_24  and  C3_26 
REMARK   14  A    between atoms: S1_27  and  N_29 
ROOT
ATOM      1  O5  SGN d5702      63.997  42.608  34.307  0.00  0.00    -0.350 OA
ATOM      2  C2  SGN d5702      65.349  40.688  34.804  0.00  0.00     0.160 C 
ATOM      3  C5  SGN d5702      63.201  42.441  35.455  0.00  0.00     0.181 C 
ATOM      4  C4  SGN d5702      64.033  41.738  36.547  0.00  0.00     0.186 C 
ATOM      5  C3  SGN d5702      64.476  40.361  35.986  0.00  0.00     0.173 C 
ATOM      6  C1  SGN d5702      64.547  41.415  33.741  0.00  0.00     0.278 C 
ENDROOT
BRANCH   4   7
ATOM      7  O4  SGN d5702      63.161  41.612  37.704  0.00  0.00    -0.348 OA
BRANCH   7   8
ATOM      8  C1  IDU d1623      63.451  42.029  39.022  0.00  0.00     0.294 C 
ATOM      9  O5  IDU d1623      62.331  42.705  39.680  0.00  0.00    -0.343 OA
ATOM     10  C5  IDU d1623      62.664  43.256  41.004  0.00  0.00     0.224 C 
ATOM     11  C4  IDU d1623      63.090  42.104  41.928  0.00  0.00     0.077 C 
ATOM     12  C3  IDU d1623      64.279  41.356  41.306  0.00  0.00     0.156 C 
ATOM     13  C2  IDU d1623      63.841  40.847  39.923  0.00  0.00     0.228 C 
BRANCH  10  14
ATOM     14  C6  IDU d1623      61.479  43.945  41.625  0.00  0.00     0.170 C 
ATOM     15  O62 IDU d1623      60.895  43.376  42.560  0.00  0.00    -0.648 OA
BRANCH  14  16
ATOM     16  O61 IDU d1623      61.146  45.056  41.164  0.00  0.00    -0.774 OA
ENDBRANCH  14  16
ENDBRANCH  10  14
BRANCH  12  18
ATOM     18  O3  IDU d1623      65.365  42.230  41.175  0.00  0.00    -0.393 OA
ATOM     19  H   IDU d1623      65.397  42.823  41.942  0.00  0.00     0.210 HD
ENDBRANCH  12  18
BRANCH  13  20
ATOM     20  O2  IDU d1623      62.708  40.022  40.056  0.00  0.00    -0.244 OA
BRANCH  20  21
ATOM     21  S   IDU d1623      62.764  38.438  39.356  0.00  0.00     0.252 S 
ATOM     22  O3S IDU d1623      62.201  37.483  40.235  0.00  0.00    -0.572 OA
ATOM     23  O1S IDU d1623      64.134  38.180  39.030  0.00  0.00    -0.572 OA
ATOM     24  O2S IDU d1623      61.967  38.382  38.140  0.00  0.00    -0.572 OA
ENDBRANCH  20  21
ENDBRANCH  13  20
ENDBRANCH   7   8
ENDBRANCH   4   7
BRANCH   3  25
ATOM     25  C6  SGN d5702      62.746  43.802  35.879  0.00  0.00     0.227 C 
BRANCH  25  26
ATOM     26  O6  SGN d5702      63.960  44.484  36.154  0.00  0.00    -0.254 OA
BRANCH  26  27
ATOM     27  S2  SGN d5702      63.969  46.214  36.105  0.00  0.00     0.251 S 
ATOM     28  O4S SGN d5702      62.804  46.758  36.725  0.00  0.00    -0.572 OA
ATOM     29  O5S SGN d5702      64.009  46.630  34.731  0.00  0.00    -0.572 OA
ATOM     30  O6S SGN d5702      65.130  46.607  36.848  0.00  0.00    -0.572 OA
ENDBRANCH  26  27
ENDBRANCH  25  26
ENDBRANCH   3  25
BRANCH   5  31
ATOM     31  O3  SGN d5702      65.253  39.682  36.944  0.00  0.00    -0.391 OA
ATOM     32  H   SGN d5702      65.846  39.059  36.496  0.00  0.00     0.210 HD
ENDBRANCH   5  31
BRANCH   2  33
ATOM     33  N   SGN d5702      65.853  39.491  34.215  0.00  0.00    -0.189 NA
ATOM     34  H   SGN d5702      65.543  39.445  33.244  0.00  0.00     0.143 HD
BRANCH  33  35
ATOM     35  S1  SGN d5702      67.618  39.428  34.254  0.00  0.00     0.183 S 
ATOM     36  O1S SGN d5702      68.132  40.312  33.227  0.00  0.00    -0.582 OA
ATOM     37  O2S SGN d5702      68.038  38.104  33.931  0.00  0.00    -0.582 OA
ATOM     38  O3S SGN d5702      67.983  39.823  35.601  0.00  0.00    -0.582 OA
ENDBRANCH  33  35
ENDBRANCH   2  33
BRANCH   6  39
ATOM     39  O1  SGN d5702      63.528  40.616  33.189  0.00  0.00    -0.369 OA
ATOM     40  H   SGN d5702      63.321  40.929  32.294  0.00  0.00     0.212 HD
ENDBRANCH   6  39
TORSDOF 14
ENDMDL
MODEL 27
REMARK VINA RESULT:       0.7      3.077      6.459
REMARK  14 active torsions:
REMARK  status: ('A' for Active; 'I' for Inactive)
REMARK    1  A    between atoms: C5_1  and  C6_23 
REMARK    2  A    between atoms: S2_5  and  O6_7 
REMARK    3  A    between atoms: O1_6  and  C1_35 
REMARK    4  A    between atoms: O6_7  and  C6_21 
REMARK    5  A    between atoms: O2_9  and  C2_28 
REMARK    6  A    between atoms: O2_9  and  S_13 
REMARK    7  A    between atoms: C3_10  and  O3_20 
REMARK    8  A    between atoms: C1_11  and  O4_12 
REMARK    9  A    between atoms: O4_12  and  C4_19 
REMARK   10  A    between atoms: C2_15  and  N_29 
REMARK   11  A    between atoms: C5_17  and  C6_21 
REMARK   12  A    between atoms: C6_23  and  O61_33 
REMARK   13  A    between atoms: O3_24  and  C3_26 
REMARK   14  A    between atoms: S1_27  and  N_29 
ROOT
ATOM      1  O5  SGN d5702      62.049  40.423  37.999  0.00  0.00    -0.350 OA
ATOM      2  C2  SGN d5702      63.079  42.263  36.851  0.00  0.00     0.160 C 
ATOM      3  C5  SGN d5702      62.747  39.462  37.245  0.00  0.00     0.181 C 
ATOM      4  C4  SGN d5702      64.091  40.061  36.784  0.00  0.00     0.186 C 
ATOM      5  C3  SGN d5702      63.775  41.309  35.917  0.00  0.00     0.173 C 
ATOM      6  C1  SGN d5702      61.774  41.663  37.341  0.00  0.00     0.278 C 
ENDROOT
BRANCH   4   7
ATOM      7  O4  SGN d5702      64.764  39.017  36.029  0.00  0.00    -0.348 OA
BRANCH   7   8
ATOM      8  C1  IDU d1623      66.072  38.532  36.252  0.00  0.00     0.294 C 
ATOM      9  O5  IDU d1623      66.133  37.080  36.434  0.00  0.00    -0.343 OA
ATOM     10  C5  IDU d1623      67.470  36.581  36.794  0.00  0.00     0.224 C 
ATOM     11  C4  IDU d1623      68.450  36.926  35.661  0.00  0.00     0.077 C 
ATOM     12  C3  IDU d1623      68.451  38.444  35.423  0.00  0.00     0.156 C 
ATOM     13  C2  IDU d1623      67.013  38.866  35.084  0.00  0.00     0.228 C 
BRANCH  10  14
ATOM     14  C6  IDU d1623      67.468  35.088  36.978  0.00  0.00     0.170 C 
ATOM     15  O62 IDU d1623      67.516  34.373  35.965  0.00  0.00    -0.648 OA
BRANCH  14  16
ATOM     16  O61 IDU d1623      67.417  34.646  38.144  0.00  0.00    -0.774 OA
ENDBRANCH  14  16
ENDBRANCH  10  14
BRANCH  12  18
ATOM     18  O3  IDU d1623      68.884  39.098  36.583  0.00  0.00    -0.393 OA
ATOM     19  H   IDU d1623      68.312  39.862  36.756  0.00  0.00     0.210 HD
ENDBRANCH  12  18
BRANCH  13  20
ATOM     20  O2  IDU d1623      66.561  38.156  33.956  0.00  0.00    -0.244 OA
BRANCH  20  21
ATOM     21  S   IDU d1623      66.076  39.060  32.560  0.00  0.00     0.252 S 
ATOM     22  O3S IDU d1623      65.285  38.264  31.699  0.00  0.00    -0.572 OA
ATOM     23  O1S IDU d1623      67.275  39.550  31.950  0.00  0.00    -0.572 OA
ATOM     24  O2S IDU d1623      65.242  40.190  32.941  0.00  0.00    -0.572 OA
ENDBRANCH  20  21
ENDBRANCH  13  20
ENDBRANCH   7   8
ENDBRANCH   4   7
BRANCH   3  25
ATOM     25  C6  SGN d5702      62.934  38.263  38.121  0.00  0.00     0.227 C 
BRANCH  25  26
ATOM     26  O6  SGN d5702      63.364  38.821  39.354  0.00  0.00    -0.254 OA
BRANCH  26  27
ATOM     27  S2  SGN d5702      64.355  37.860  40.398  0.00  0.00     0.251 S 
ATOM     28  O4S SGN d5702      63.572  37.182  41.380  0.00  0.00    -0.572 OA
ATOM     29  O5S SGN d5702      65.293  38.725  41.057  0.00  0.00    -0.572 OA
ATOM     30  O6S SGN d5702      64.981  36.896  39.541  0.00  0.00    -0.572 OA
ENDBRANCH  26  27
ENDBRANCH  25  26
ENDBRANCH   3  25
BRANCH   5  31
ATOM     31  O3  SGN d5702      64.974  41.903  35.481  0.00  0.00    -0.391 OA
ATOM     32  H   SGN d5702      65.059  42.786  35.874  0.00  0.00     0.210 HD
ENDBRANCH   5  31
BRANCH   2  33
ATOM     33  N   SGN d5702      62.764  43.478  36.174  0.00  0.00    -0.189 NA
ATOM     34  H   SGN d5702      61.754  43.620  36.205  0.00  0.00     0.143 HD
BRANCH  33  35
ATOM     35  S1  SGN d5702      63.559  44.871  36.914  0.00  0.00     0.183 S 
ATOM     36  O1S SGN d5702      63.452  44.749  38.354  0.00  0.00    -0.582 OA
ATOM     37  O2S SGN d5702      62.861  46.055  36.530  0.00  0.00    -0.582 OA
ATOM     38  O3S SGN d5702      64.923  44.835  36.423  0.00  0.00    -0.582 OA
ENDBRANCH  33  35
ENDBRANCH   2  33
BRANCH   6  39
ATOM     39  O1  SGN d5702      60.840  41.475  36.304  0.00  0.00    -0.369 OA
ATOM     40  H   SGN d5702      59.942  41.498  36.670  0.00  0.00     0.212 HD
ENDBRANCH   6  39
TORSDOF 14
ENDMDL
MODEL 28
REMARK VINA RESULT:       1.2      2.887      6.745
REMARK  14 active torsions:
REMARK  status: ('A' for Active; 'I' for Inactive)
REMARK    1  A    between atoms: C5_1  and  C6_23 
REMARK    2  A    between atoms: S2_5  and  O6_7 
REMARK    3  A    between atoms: O1_6  and  C1_35 
REMARK    4  A    between atoms: O6_7  and  C6_21 
REMARK    5  A    between atoms: O2_9  and  C2_28 
REMARK    6  A    between atoms: O2_9  and  S_13 
REMARK    7  A    between atoms: C3_10  and  O3_20 
REMARK    8  A    between atoms: C1_11  and  O4_12 
REMARK    9  A    between atoms: O4_12  and  C4_19 
REMARK   10  A    between atoms: C2_15  and  N_29 
REMARK   11  A    between atoms: C5_17  and  C6_21 
REMARK   12  A    between atoms: C6_23  and  O61_33 
REMARK   13  A    between atoms: O3_24  and  C3_26 
REMARK   14  A    between atoms: S1_27  and  N_29 
ROOT
ATOM      1  O5  SGN d5702      66.415  42.107  34.080  0.00  0.00    -0.350 OA
ATOM      2  C2  SGN d5702      66.262  39.799  34.725  0.00  0.00     0.160 C 
ATOM      3  C5  SGN d5702      65.214  42.448  34.730  0.00  0.00     0.181 C 
ATOM      4  C4  SGN d5702      64.992  41.486  35.915  0.00  0.00     0.186 C 
ATOM      5  C3  SGN d5702      64.911  40.046  35.343  0.00  0.00     0.173 C 
ATOM      6  C1  SGN d5702      66.505  40.769  33.583  0.00  0.00     0.278 C 
ENDROOT
BRANCH   4   7
ATOM      7  O4  SGN d5702      63.751  41.902  36.548  0.00  0.00    -0.348 OA
BRANCH   7   8
ATOM      8  C1  IDU d1623      63.626  42.747  37.673  0.00  0.00     0.294 C 
ATOM      9  O5  IDU d1623      62.399  43.546  37.671  0.00  0.00    -0.343 OA
ATOM     10  C5  IDU d1623      62.321  44.521  38.771  0.00  0.00     0.224 C 
ATOM     11  C4  IDU d1623      62.351  43.763  40.108  0.00  0.00     0.077 C 
ATOM     12  C3  IDU d1623      63.627  42.910  40.189  0.00  0.00     0.156 C 
ATOM     13  C2  IDU d1623      63.627  41.951  38.989  0.00  0.00     0.228 C 
BRANCH  10  14
ATOM     14  C6  IDU d1623      61.047  45.318  38.709  0.00  0.00     0.170 C 
ATOM     15  O62 IDU d1623      60.222  45.037  37.826  0.00  0.00    -0.648 OA
BRANCH  14  16
ATOM     16  O61 IDU d1623      60.887  46.223  39.553  0.00  0.00    -0.774 OA
ENDBRANCH  14  16
ENDBRANCH  10  14
BRANCH  12  18
ATOM     18  O3  IDU d1623      64.751  43.743  40.139  0.00  0.00    -0.393 OA
ATOM     19  H   IDU d1623      65.179  43.656  39.274  0.00  0.00     0.210 HD
ENDBRANCH  12  18
BRANCH  13  20
ATOM     20  O2  IDU d1623      62.461  41.161  39.009  0.00  0.00    -0.244 OA
BRANCH  20  21
ATOM     21  S   IDU d1623      62.639  39.445  39.162  0.00  0.00     0.252 S 
ATOM     22  O3S IDU d1623      62.115  38.785  38.026  0.00  0.00    -0.572 OA
ATOM     23  O1S IDU d1623      62.001  39.073  40.389  0.00  0.00    -0.572 OA
ATOM     24  O2S IDU d1623      64.045  39.075  39.227  0.00  0.00    -0.572 OA
ENDBRANCH  20  21
ENDBRANCH  13  20
ENDBRANCH   7   8
ENDBRANCH   4   7
BRANCH   3  25
ATOM     25  C6  SGN d5702      65.341  43.872  35.173  0.00  0.00     0.227 C 
BRANCH  25  26
ATOM     26  O6  SGN d5702      64.229  44.507  34.559  0.00  0.00    -0.254 OA
BRANCH  26  27
ATOM     27  S2  SGN d5702      64.502  45.945  33.636  0.00  0.00     0.251 S 
ATOM     28  O4S SGN d5702      64.378  47.114  34.446  0.00  0.00    -0.572 OA
ATOM     29  O5S SGN d5702      63.531  45.998  32.580  0.00  0.00    -0.572 OA
ATOM     30  O6S SGN d5702      65.850  45.837  33.159  0.00  0.00    -0.572 OA
ENDBRANCH  26  27
ENDBRANCH  25  26
ENDBRANCH   3  25
BRANCH   5  31
ATOM     31  O3  SGN d5702      64.722  39.125  36.390  0.00  0.00    -0.391 OA
ATOM     32  H   SGN d5702      64.868  38.225  36.060  0.00  0.00     0.210 HD
ENDBRANCH   5  31
BRANCH   2  33
ATOM     33  N   SGN d5702      66.328  38.480  34.188  0.00  0.00    -0.189 NA
ATOM     34  H   SGN d5702      66.523  38.540  33.189  0.00  0.00     0.143 HD
BRANCH  33  35
ATOM     35  S1  SGN d5702      67.590  37.514  34.960  0.00  0.00     0.183 S 
ATOM     36  O1S SGN d5702      68.472  37.005  33.929  0.00  0.00    -0.582 OA
ATOM     37  O2S SGN d5702      66.983  36.393  35.599  0.00  0.00    -0.582 OA
ATOM     38  O3S SGN d5702      68.239  38.414  35.894  0.00  0.00    -0.582 OA
ENDBRANCH  33  35
ENDBRANCH   2  33
BRANCH   6  39
ATOM     39  O1  SGN d5702      65.612  40.579  32.511  0.00  0.00    -0.369 OA
ATOM     40  H   SGN d5702      64.924  41.262  32.540  0.00  0.00     0.212 HD
ENDBRANCH   6  39
TORSDOF 14
ENDMDL
MODEL 29
REMARK VINA RESULT:       1.3      2.937      6.772
REMARK  14 active torsions:
REMARK  status: ('A' for Active; 'I' for Inactive)
REMARK    1  A    between atoms: C5_1  and  C6_23 
REMARK    2  A    between atoms: S2_5  and  O6_7 
REMARK    3  A    between atoms: O1_6  and  C1_35 
REMARK    4  A    between atoms: O6_7  and  C6_21 
REMARK    5  A    between atoms: O2_9  and  C2_28 
REMARK    6  A    between atoms: O2_9  and  S_13 
REMARK    7  A    between atoms: C3_10  and  O3_20 
REMARK    8  A    between atoms: C1_11  and  O4_12 
REMARK    9  A    between atoms: O4_12  and  C4_19 
REMARK   10  A    between atoms: C2_15  and  N_29 
REMARK   11  A    between atoms: C5_17  and  C6_21 
REMARK   12  A    between atoms: C6_23  and  O61_33 
REMARK   13  A    between atoms: O3_24  and  C3_26 
REMARK   14  A    between atoms: S1_27  and  N_29 
ROOT
ATOM      1  O5  SGN d5702      63.835  42.482  33.185  0.00  0.00    -0.350 OA
ATOM      2  C2  SGN d5702      65.775  41.365  32.318  0.00  0.00     0.160 C 
ATOM      3  C5  SGN d5702      63.527  41.430  34.066  0.00  0.00     0.181 C 
ATOM      4  C4  SGN d5702      64.828  40.694  34.447  0.00  0.00     0.186 C 
ATOM      5  C3  SGN d5702      65.456  40.143  33.138  0.00  0.00     0.173 C 
ATOM      6  C1  SGN d5702      64.502  42.116  31.974  0.00  0.00     0.278 C 
ENDROOT
BRANCH   4   7
ATOM      7  O4  SGN d5702      64.442  39.635  35.365  0.00  0.00    -0.348 OA
BRANCH   7   8
ATOM      8  C1  IDU d1623      65.288  38.974  36.284  0.00  0.00     0.294 C 
ATOM      9  O5  IDU d1623      66.511  39.718  36.592  0.00  0.00    -0.343 OA
ATOM     10  C5  IDU d1623      67.457  38.981  37.446  0.00  0.00     0.224 C 
ATOM     11  C4  IDU d1623      66.776  38.676  38.790  0.00  0.00     0.077 C 
ATOM     12  C3  IDU d1623      65.485  37.878  38.546  0.00  0.00     0.156 C 
ATOM     13  C2  IDU d1623      64.584  38.716  37.626  0.00  0.00     0.228 C 
BRANCH  10  14
ATOM     14  C6  IDU d1623      68.696  39.790  37.718  0.00  0.00     0.170 C 
ATOM     15  O62 IDU d1623      69.158  40.481  36.798  0.00  0.00    -0.648 OA
BRANCH  14  16
ATOM     16  O61 IDU d1623      69.195  39.721  38.860  0.00  0.00    -0.774 OA
ENDBRANCH  14  16
ENDBRANCH  10  14
BRANCH  12  18
ATOM     18  O3  IDU d1623      65.799  36.659  37.933  0.00  0.00    -0.393 OA
ATOM     19  H   IDU d1623      65.218  35.964  38.281  0.00  0.00     0.210 HD
ENDBRANCH  12  18
BRANCH  13  20
ATOM     20  O2  IDU d1623      64.327  39.966  38.219  0.00  0.00    -0.244 OA
BRANCH  20  21
ATOM     21  S   IDU d1623      62.965  40.103  39.281  0.00  0.00     0.252 S 
ATOM     22  O3S IDU d1623      62.028  39.074  39.027  0.00  0.00    -0.572 OA
ATOM     23  O1S IDU d1623      62.433  41.421  39.101  0.00  0.00    -0.572 OA
ATOM     24  O2S IDU d1623      63.373  39.941  40.668  0.00  0.00    -0.572 OA
ENDBRANCH  20  21
ENDBRANCH  13  20
ENDBRANCH   7   8
ENDBRANCH   4   7
BRANCH   3  25
ATOM     25  C6  SGN d5702      62.851  42.034  35.257  0.00  0.00     0.227 C 
BRANCH  25  26
ATOM     26  O6  SGN d5702      62.795  43.416  34.937  0.00  0.00    -0.254 OA
BRANCH  26  27
ATOM     27  S2  SGN d5702      62.910  44.569  36.222  0.00  0.00     0.251 S 
ATOM     28  O4S SGN d5702      63.675  44.057  37.313  0.00  0.00    -0.572 OA
ATOM     29  O5S SGN d5702      61.584  44.875  36.679  0.00  0.00    -0.572 OA
ATOM     30  O6S SGN d5702      63.588  45.699  35.655  0.00  0.00    -0.572 OA
ENDBRANCH  26  27
ENDBRANCH  25  26
ENDBRANCH   3  25
BRANCH   5  31
ATOM     31  O3  SGN d5702      66.657  39.472  33.431  0.00  0.00    -0.391 OA
ATOM     32  H   SGN d5702      66.666  38.613  32.980  0.00  0.00     0.210 HD
ENDBRANCH   5  31
BRANCH   2  33
ATOM     33  N   SGN d5702      66.396  40.989  31.091  0.00  0.00    -0.189 NA
ATOM     34  H   SGN d5702      66.037  41.584  30.344  0.00  0.00     0.143 HD
BRANCH  33  35
ATOM     35  S1  SGN d5702      68.153  41.157  31.161  0.00  0.00     0.183 S 
ATOM     36  O1S SGN d5702      68.594  41.857  29.970  0.00  0.00    -0.582 OA
ATOM     37  O2S SGN d5702      68.740  39.858  31.138  0.00  0.00    -0.582 OA
ATOM     38  O3S SGN d5702      68.417  41.875  32.393  0.00  0.00    -0.582 OA
ENDBRANCH  33  35
ENDBRANCH   2  33
BRANCH   6  39
ATOM     39  O1  SGN d5702      63.643  41.375  31.141  0.00  0.00    -0.369 OA
ATOM     40  H   SGN d5702      64.170  40.860  30.510  0.00  0.00     0.212 HD
ENDBRANCH   6  39
TORSDOF 14
ENDMDL
MODEL 30
REMARK VINA RESULT:       1.7      2.911      6.281
REMARK  14 active torsions:
REMARK  status: ('A' for Active; 'I' for Inactive)
REMARK    1  A    between atoms: C5_1  and  C6_23 
REMARK    2  A    between atoms: S2_5  and  O6_7 
REMARK    3  A    between atoms: O1_6  and  C1_35 
REMARK    4  A    between atoms: O6_7  and  C6_21 
REMARK    5  A    between atoms: O2_9  and  C2_28 
REMARK    6  A    between atoms: O2_9  and  S_13 
REMARK    7  A    between atoms: C3_10  and  O3_20 
REMARK    8  A    between atoms: C1_11  and  O4_12 
REMARK    9  A    between atoms: O4_12  and  C4_19 
REMARK   10  A    between atoms: C2_15  and  N_29 
REMARK   11  A    between atoms: C5_17  and  C6_21 
REMARK   12  A    between atoms: C6_23  and  O61_33 
REMARK   13  A    between atoms: O3_24  and  C3_26 
REMARK   14  A    between atoms: S1_27  and  N_29 
ROOT
ATOM      1  O5  SGN d5702      64.668  42.855  32.967  0.00  0.00    -0.350 OA
ATOM      2  C2  SGN d5702      65.771  40.809  32.367  0.00  0.00     0.160 C 
ATOM      3  C5  SGN d5702      63.892  42.235  33.963  0.00  0.00     0.181 C 
ATOM      4  C4  SGN d5702      64.657  41.013  34.510  0.00  0.00     0.186 C 
ATOM      5  C3  SGN d5702      64.899  40.041  33.324  0.00  0.00     0.173 C 
ATOM      6  C1  SGN d5702      65.039  42.036  31.855  0.00  0.00     0.278 C 
ENDROOT
BRANCH   4   7
ATOM      7  O4  SGN d5702      63.811  40.431  35.540  0.00  0.00    -0.348 OA
BRANCH   7   8
ATOM      8  C1  IDU d1623      64.246  39.698  36.666  0.00  0.00     0.294 C 
ATOM      9  O5  IDU d1623      65.691  39.463  36.688  0.00  0.00    -0.343 OA
ATOM     10  C5  IDU d1623      66.137  38.593  37.787  0.00  0.00     0.224 C 
ATOM     11  C4  IDU d1623      65.777  39.260  39.125  0.00  0.00     0.077 C 
ATOM     12  C3  IDU d1623      64.264  39.523  39.181  0.00  0.00     0.156 C 
ATOM     13  C2  IDU d1623      63.898  40.411  37.982  0.00  0.00     0.228 C 
BRANCH  10  14
ATOM     14  C6  IDU d1623      67.626  38.381  37.752  0.00  0.00     0.170 C 
ATOM     15  O62 IDU d1623      68.050  37.219  37.659  0.00  0.00    -0.648 OA
BRANCH  14  16
ATOM     16  O61 IDU d1623      68.357  39.390  37.819  0.00  0.00    -0.774 OA
ENDBRANCH  14  16
ENDBRANCH  10  14
BRANCH  12  18
ATOM     18  O3  IDU d1623      63.575  38.306  39.106  0.00  0.00    -0.393 OA
ATOM     19  H   IDU d1623      63.033  38.192  39.902  0.00  0.00     0.210 HD
ENDBRANCH  12  18
BRANCH  13  20
ATOM     20  O2  IDU d1623      64.644  41.605  38.028  0.00  0.00    -0.244 OA
BRANCH  20  21
ATOM     21  S   IDU d1623      64.123  42.852  39.113  0.00  0.00     0.252 S 
ATOM     22  O3S IDU d1623      64.964  42.908  40.250  0.00  0.00    -0.572 OA
ATOM     23  O1S IDU d1623      62.753  42.581  39.425  0.00  0.00    -0.572 OA
ATOM     24  O2S IDU d1623      64.217  44.159  38.481  0.00  0.00    -0.572 OA
ENDBRANCH  20  21
ENDBRANCH  13  20
ENDBRANCH   7   8
ENDBRANCH   4   7
BRANCH   3  25
ATOM     25  C6  SGN d5702      63.632  43.259  35.023  0.00  0.00     0.227 C 
BRANCH  25  26
ATOM     26  O6  SGN d5702      62.309  43.693  34.743  0.00  0.00    -0.254 OA
BRANCH  26  27
ATOM     27  S2  SGN d5702      61.116  43.576  35.991  0.00  0.00     0.251 S 
ATOM     28  O4S SGN d5702      61.281  44.606  36.965  0.00  0.00    -0.572 OA
ATOM     29  O5S SGN d5702      61.251  42.298  36.630  0.00  0.00    -0.572 OA
ATOM     30  O6S SGN d5702      59.857  43.747  35.327  0.00  0.00    -0.572 OA
ENDBRANCH  26  27
ENDBRANCH  25  26
ENDBRANCH   3  25
BRANCH   5  31
ATOM     31  O3  SGN d5702      65.608  38.910  33.770  0.00  0.00    -0.391 OA
ATOM     32  H   SGN d5702      65.245  38.614  34.619  0.00  0.00     0.210 HD
ENDBRANCH   5  31
BRANCH   2  33
ATOM     33  N   SGN d5702      66.097  40.002  31.237  0.00  0.00    -0.189 NA
ATOM     34  H   SGN d5702      65.822  40.497  30.388  0.00  0.00     0.143 HD
BRANCH  33  35
ATOM     35  S1  SGN d5702      67.825  39.645  31.156  0.00  0.00     0.183 S 
ATOM     36  O1S SGN d5702      67.997  38.351  30.525  0.00  0.00    -0.582 OA
ATOM     37  O2S SGN d5702      68.336  39.547  32.484  0.00  0.00    -0.582 OA
ATOM     38  O3S SGN d5702      68.405  40.743  30.407  0.00  0.00    -0.582 OA
ENDBRANCH  33  35
ENDBRANCH   2  33
BRANCH   6  39
ATOM     39  O1  SGN d5702      63.908  41.710  31.083  0.00  0.00    -0.369 OA
ATOM     40  H   SGN d5702      63.158  42.259  31.361  0.00  0.00     0.212 HD
ENDBRANCH   6  39
TORSDOF 14
ENDMDL
MODEL 31
REMARK VINA RESULT:       2.4      2.932      6.202
REMARK  14 active torsions:
REMARK  status: ('A' for Active; 'I' for Inactive)
REMARK    1  A    between atoms: C5_1  and  C6_23 
REMARK    2  A    between atoms: S2_5  and  O6_7 
REMARK    3  A    between atoms: O1_6  and  C1_35 
REMARK    4  A    between atoms: O6_7  and  C6_21 
REMARK    5  A    between atoms: O2_9  and  C2_28 
REMARK    6  A    between atoms: O2_9  and  S_13 
REMARK    7  A    between atoms: C3_10  and  O3_20 
REMARK    8  A    between atoms: C1_11  and  O4_12 
REMARK    9  A    between atoms: O4_12  and  C4_19 
REMARK   10  A    between atoms: C2_15  and  N_29 
REMARK   11  A    between atoms: C5_17  and  C6_21 
REMARK   12  A    between atoms: C6_23  and  O61_33 
REMARK   13  A    between atoms: O3_24  and  C3_26 
REMARK   14  A    between atoms: S1_27  and  N_29 
ROOT
ATOM      1  O5  SGN d5702      64.287  42.515  33.274  0.00  0.00    -0.350 OA
ATOM      2  C2  SGN d5702      65.830  40.698  32.986  0.00  0.00     0.160 C 
ATOM      3  C5  SGN d5702      63.508  41.807  34.208  0.00  0.00     0.181 C 
ATOM      4  C4  SGN d5702      64.404  40.791  34.945  0.00  0.00     0.186 C 
ATOM      5  C3  SGN d5702      64.991  39.824  33.882  0.00  0.00     0.173 C 
ATOM      6  C1  SGN d5702      64.960  41.727  32.288  0.00  0.00     0.278 C 
ENDROOT
BRANCH   4   7
ATOM      7  O4  SGN d5702      63.545  40.109  35.900  0.00  0.00    -0.348 OA
BRANCH   7   8
ATOM      8  C1  IDU d1623      63.935  39.590  37.155  0.00  0.00     0.294 C 
ATOM      9  O5  IDU d1623      64.602  38.290  37.068  0.00  0.00    -0.343 OA
ATOM     10  C5  IDU d1623      64.896  37.683  38.376  0.00  0.00     0.224 C 
ATOM     11  C4  IDU d1623      65.841  38.613  39.153  0.00  0.00     0.077 C 
ATOM     12  C3  IDU d1623      65.197  40.000  39.299  0.00  0.00     0.156 C 
ATOM     13  C2  IDU d1623      64.904  40.532  37.887  0.00  0.00     0.228 C 
BRANCH  10  14
ATOM     14  C6  IDU d1623      65.570  36.347  38.222  0.00  0.00     0.170 C 
ATOM     15  O62 IDU d1623      64.981  35.341  38.646  0.00  0.00    -0.648 OA
BRANCH  14  16
ATOM     16  O61 IDU d1623      66.692  36.323  37.676  0.00  0.00    -0.774 OA
ENDBRANCH  14  16
ENDBRANCH  10  14
BRANCH  12  18
ATOM     18  O3  IDU d1623      64.005  39.888  40.027  0.00  0.00    -0.393 OA
ATOM     19  H   IDU d1623      63.907  40.660  40.606  0.00  0.00     0.210 HD
ENDBRANCH  12  18
BRANCH  13  20
ATOM     20  O2  IDU d1623      66.096  40.579  37.139  0.00  0.00    -0.244 OA
BRANCH  20  21
ATOM     21  S   IDU d1623      67.254  41.810  37.524  0.00  0.00     0.252 S 
ATOM     22  O3S IDU d1623      66.649  42.848  38.272  0.00  0.00    -0.572 OA
ATOM     23  O1S IDU d1623      67.815  42.250  36.282  0.00  0.00    -0.572 OA
ATOM     24  O2S IDU d1623      68.316  41.277  38.363  0.00  0.00    -0.572 OA
ENDBRANCH  20  21
ENDBRANCH  13  20
ENDBRANCH   7   8
ENDBRANCH   4   7
BRANCH   3  25
ATOM     25  C6  SGN d5702      62.911  42.815  35.140  0.00  0.00     0.227 C 
BRANCH  25  26
ATOM     26  O6  SGN d5702      63.780  43.931  35.017  0.00  0.00    -0.254 OA
BRANCH  26  27
ATOM     27  S2  SGN d5702      64.032  44.942  36.399  0.00  0.00     0.251 S 
ATOM     28  O4S SGN d5702      63.657  44.277  37.605  0.00  0.00    -0.572 OA
ATOM     29  O5S SGN d5702      63.235  46.126  36.246  0.00  0.00    -0.572 OA
ATOM     30  O6S SGN d5702      65.440  45.208  36.420  0.00  0.00    -0.572 OA
ENDBRANCH  26  27
ENDBRANCH  25  26
ENDBRANCH   3  25
BRANCH   5  31
ATOM     31  O3  SGN d5702      65.830  38.882  34.504  0.00  0.00    -0.391 OA
ATOM     32  H   SGN d5702      65.610  37.993  34.185  0.00  0.00     0.210 HD
ENDBRANCH   5  31
BRANCH   2  33
ATOM     33  N   SGN d5702      66.459  39.912  31.976  0.00  0.00    -0.189 NA
ATOM     34  H   SGN d5702      66.475  40.446  31.107  0.00  0.00     0.143 HD
BRANCH  33  35
ATOM     35  S1  SGN d5702      68.115  39.479  32.412  0.00  0.00     0.183 S 
ATOM     36  O1S SGN d5702      68.966  39.705  31.261  0.00  0.00    -0.582 OA
ATOM     37  O2S SGN d5702      68.160  38.085  32.713  0.00  0.00    -0.582 OA
ATOM     38  O3S SGN d5702      68.439  40.314  33.552  0.00  0.00    -0.582 OA
ENDBRANCH  33  35
ENDBRANCH   2  33
BRANCH   6  39
ATOM     39  O1  SGN d5702      64.032  41.143  31.405  0.00  0.00    -0.369 OA
ATOM     40  H   SGN d5702      64.437  40.375  30.972  0.00  0.00     0.212 HD
ENDBRANCH   6  39
TORSDOF 14
ENDMDL
MODEL 32
REMARK VINA RESULT:       3.8      2.844      6.866
REMARK  14 active torsions:
REMARK  status: ('A' for Active; 'I' for Inactive)
REMARK    1  A    between atoms: C5_1  and  C6_23 
REMARK    2  A    between atoms: S2_5  and  O6_7 
REMARK    3  A    between atoms: O1_6  and  C1_35 
REMARK    4  A    between atoms: O6_7  and  C6_21 
REMARK    5  A    between atoms: O2_9  and  C2_28 
REMARK    6  A    between atoms: O2_9  and  S_13 
REMARK    7  A    between atoms: C3_10  and  O3_20 
REMARK    8  A    between atoms: C1_11  and  O4_12 
REMARK    9  A    between atoms: O4_12  and  C4_19 
REMARK   10  A    between atoms: C2_15  and  N_29 
REMARK   11  A    between atoms: C5_17  and  C6_21 
REMARK   12  A    between atoms: C6_23  and  O61_33 
REMARK   13  A    between atoms: O3_24  and  C3_26 
REMARK   14  A    between atoms: S1_27  and  N_29 
ROOT
ATOM      1  O5  SGN d5702      64.312  42.637  33.060  0.00  0.00    -0.350 OA
ATOM      2  C2  SGN d5702      65.889  40.868  32.675  0.00  0.00     0.160 C 
ATOM      3  C5  SGN d5702      63.625  41.913  34.051  0.00  0.00     0.181 C 
ATOM      4  C4  SGN d5702      64.603  40.933  34.729  0.00  0.00     0.186 C 
ATOM      5  C3  SGN d5702      65.144  39.976  33.633  0.00  0.00     0.173 C 
ATOM      6  C1  SGN d5702      64.940  41.862  32.033  0.00  0.00     0.278 C 
ENDROOT
BRANCH   4   7
ATOM      7  O4  SGN d5702      63.836  40.232  35.747  0.00  0.00    -0.348 OA
BRANCH   7   8
ATOM      8  C1  IDU d1623      64.018  40.324  37.144  0.00  0.00     0.294 C 
ATOM      9  O5  IDU d1623      63.276  39.312  37.898  0.00  0.00    -0.343 OA
ATOM     10  C5  IDU d1623      63.357  39.479  39.358  0.00  0.00     0.224 C 
ATOM     11  C4  IDU d1623      64.828  39.361  39.790  0.00  0.00     0.077 C 
ATOM     12  C3  IDU d1623      65.670  40.410  39.047  0.00  0.00     0.156 C 
ATOM     13  C2  IDU d1623      65.495  40.170  37.540  0.00  0.00     0.228 C 
BRANCH  10  14
ATOM     14  C6  IDU d1623      62.569  38.418  40.077  0.00  0.00     0.170 C 
ATOM     15  O62 IDU d1623      61.673  38.780  40.855  0.00  0.00    -0.648 OA
BRANCH  14  16
ATOM     16  O61 IDU d1623      62.861  37.225  39.852  0.00  0.00    -0.774 OA
ENDBRANCH  14  16
ENDBRANCH  10  14
BRANCH  12  18
ATOM     18  O3  IDU d1623      65.221  41.694  39.385  0.00  0.00    -0.393 OA
ATOM     19  H   IDU d1623      65.980  42.294  39.452  0.00  0.00     0.210 HD
ENDBRANCH  12  18
BRANCH  13  20
ATOM     20  O2  IDU d1623      65.886  38.856  37.219  0.00  0.00    -0.244 OA
BRANCH  20  21
ATOM     21  S   IDU d1623      67.568  38.548  36.941  0.00  0.00     0.252 S 
ATOM     22  O3S IDU d1623      68.186  39.666  36.332  0.00  0.00    -0.572 OA
ATOM     23  O1S IDU d1623      67.644  37.352  36.156  0.00  0.00    -0.572 OA
ATOM     24  O2S IDU d1623      68.269  38.337  38.197  0.00  0.00    -0.572 OA
ENDBRANCH  20  21
ENDBRANCH  13  20
ENDBRANCH   7   8
ENDBRANCH   4   7
BRANCH   3  25
ATOM     25  C6  SGN d5702      63.063  42.909  35.016  0.00  0.00     0.227 C 
BRANCH  25  26
ATOM     26  O6  SGN d5702      63.923  44.029  34.871  0.00  0.00    -0.254 OA
BRANCH  26  27
ATOM     27  S2  SGN d5702      64.639  44.714  36.290  0.00  0.00     0.251 S 
ATOM     28  O4S SGN d5702      64.767  43.743  37.328  0.00  0.00    -0.572 OA
ATOM     29  O5S SGN d5702      63.802  45.787  36.748  0.00  0.00    -0.572 OA
ATOM     30  O6S SGN d5702      65.943  45.149  35.882  0.00  0.00    -0.572 OA
ENDBRANCH  26  27
ENDBRANCH  25  26
ENDBRANCH   3  25
BRANCH   5  31
ATOM     31  O3  SGN d5702      66.055  39.066  34.201  0.00  0.00    -0.391 OA
ATOM     32  H   SGN d5702      65.842  38.167  33.904  0.00  0.00     0.210 HD
ENDBRANCH   5  31
BRANCH   2  33
ATOM     33  N   SGN d5702      66.470  40.093  31.629  0.00  0.00    -0.189 NA
ATOM     34  H   SGN d5702      66.381  40.606  30.751  0.00  0.00     0.143 HD
BRANCH  33  35
ATOM     35  S1  SGN d5702      68.180  39.761  31.924  0.00  0.00     0.183 S 
ATOM     36  O1S SGN d5702      68.920  40.054  30.712  0.00  0.00    -0.582 OA
ATOM     37  O2S SGN d5702      68.337  38.370  32.197  0.00  0.00    -0.582 OA
ATOM     38  O3S SGN d5702      68.542  40.602  33.049  0.00  0.00    -0.582 OA
ENDBRANCH  33  35
ENDBRANCH   2  33
BRANCH   6  39
ATOM     39  O1  SGN d5702      63.971  41.241  31.222  0.00  0.00    -0.369 OA
ATOM     40  H   SGN d5702      64.369  40.483  30.767  0.00  0.00     0.212 HD
ENDBRANCH   6  39
TORSDOF 14
ENDMDL
MODEL 33
REMARK VINA RESULT:       4.4      2.652      6.260
REMARK  14 active torsions:
REMARK  status: ('A' for Active; 'I' for Inactive)
REMARK    1  A    between atoms: C5_1  and  C6_23 
REMARK    2  A    between atoms: S2_5  and  O6_7 
REMARK    3  A    between atoms: O1_6  and  C1_35 
REMARK    4  A    between atoms: O6_7  and  C6_21 
REMARK    5  A    between atoms: O2_9  and  C2_28 
REMARK    6  A    between atoms: O2_9  and  S_13 
REMARK    7  A    between atoms: C3_10  and  O3_20 
REMARK    8  A    between atoms: C1_11  and  O4_12 
REMARK    9  A    between atoms: O4_12  and  C4_19 
REMARK   10  A    between atoms: C2_15  and  N_29 
REMARK   11  A    between atoms: C5_17  and  C6_21 
REMARK   12  A    between atoms: C6_23  and  O61_33 
REMARK   13  A    between atoms: O3_24  and  C3_26 
REMARK   14  A    between atoms: S1_27  and  N_29 
ROOT
ATOM      1  O5  SGN d5702      67.175  42.384  34.157  0.00  0.00    -0.350 OA
ATOM      2  C2  SGN d5702      67.240  39.987  34.267  0.00  0.00     0.160 C 
ATOM      3  C5  SGN d5702      66.067  42.471  35.020  0.00  0.00     0.181 C 
ATOM      4  C4  SGN d5702      66.072  41.256  35.970  0.00  0.00     0.186 C 
ATOM      5  C3  SGN d5702      65.984  39.976  35.097  0.00  0.00     0.173 C 
ATOM      6  C1  SGN d5702      67.261  41.202  33.357  0.00  0.00     0.278 C 
ENDROOT
BRANCH   4   7
ATOM      7  O4  SGN d5702      64.918  41.415  36.839  0.00  0.00    -0.348 OA
BRANCH   7   8
ATOM      8  C1  IDU d1623      63.736  40.642  36.812  0.00  0.00     0.294 C 
ATOM      9  O5  IDU d1623      63.726  39.554  37.792  0.00  0.00    -0.343 OA
ATOM     10  C5  IDU d1623      62.558  38.666  37.685  0.00  0.00     0.224 C 
ATOM     11  C4  IDU d1623      61.284  39.491  37.929  0.00  0.00     0.077 C 
ATOM     12  C3  IDU d1623      61.217  40.649  36.920  0.00  0.00     0.156 C 
ATOM     13  C2  IDU d1623      62.488  41.495  37.092  0.00  0.00     0.228 C 
BRANCH  10  14
ATOM     14  C6  IDU d1623      62.609  37.565  38.709  0.00  0.00     0.170 C 
ATOM     15  O62 IDU d1623      62.020  36.503  38.456  0.00  0.00    -0.648 OA
BRANCH  14  16
ATOM     16  O61 IDU d1623      63.243  37.780  39.762  0.00  0.00    -0.774 OA
ENDBRANCH  14  16
ENDBRANCH  10  14
BRANCH  12  18
ATOM     18  O3  IDU d1623      61.155  40.132  35.620  0.00  0.00    -0.393 OA
ATOM     19  H   IDU d1623      62.007  40.270  35.177  0.00  0.00     0.210 HD
ENDBRANCH  12  18
BRANCH  13  20
ATOM     20  O2  IDU d1623      62.577  41.956  38.419  0.00  0.00    -0.244 OA
BRANCH  20  21
ATOM     21  S   IDU d1623      62.752  43.659  38.683  0.00  0.00     0.252 S 
ATOM     22  O3S IDU d1623      64.120  44.014  38.765  0.00  0.00    -0.572 OA
ATOM     23  O1S IDU d1623      62.006  43.972  39.864  0.00  0.00    -0.572 OA
ATOM     24  O2S IDU d1623      62.209  44.414  37.564  0.00  0.00    -0.572 OA
ENDBRANCH  20  21
ENDBRANCH  13  20
ENDBRANCH   7   8
ENDBRANCH   4   7
BRANCH   3  25
ATOM     25  C6  SGN d5702      66.183  43.767  35.759  0.00  0.00     0.227 C 
BRANCH  25  26
ATOM     26  O6  SGN d5702      64.988  44.451  35.412  0.00  0.00    -0.254 OA
BRANCH  26  27
ATOM     27  S2  SGN d5702      64.940  45.333  33.924  0.00  0.00     0.251 S 
ATOM     28  O4S SGN d5702      64.500  44.508  32.845  0.00  0.00    -0.572 OA
ATOM     29  O5S SGN d5702      66.261  45.817  33.640  0.00  0.00    -0.572 OA
ATOM     30  O6S SGN d5702      63.987  46.383  34.139  0.00  0.00    -0.572 OA
ENDBRANCH  26  27
ENDBRANCH  25  26
ENDBRANCH   3  25
BRANCH   5  31
ATOM     31  O3  SGN d5702      65.998  38.834  35.919  0.00  0.00    -0.391 OA
ATOM     32  H   SGN d5702      66.141  38.045  35.374  0.00  0.00     0.210 HD
ENDBRANCH   5  31
BRANCH   2  33
ATOM     33  N   SGN d5702      67.294  38.829  33.436  0.00  0.00    -0.189 NA
ATOM     34  H   SGN d5702      67.337  39.125  32.461  0.00  0.00     0.143 HD
BRANCH  33  35
ATOM     35  S1  SGN d5702      68.706  37.827  33.791  0.00  0.00     0.183 S 
ATOM     36  O1S SGN d5702      69.448  37.629  32.562  0.00  0.00    -0.582 OA
ATOM     37  O2S SGN d5702      68.260  36.547  34.235  0.00  0.00    -0.582 OA
ATOM     38  O3S SGN d5702      69.441  38.554  34.808  0.00  0.00    -0.582 OA
ENDBRANCH  33  35
ENDBRANCH   2  33
BRANCH   6  39
ATOM     39  O1  SGN d5702      66.232  41.179  32.398  0.00  0.00    -0.369 OA
ATOM     40  H   SGN d5702      65.520  41.778  32.673  0.00  0.00     0.212 HD
ENDBRANCH   6  39
TORSDOF 14
ENDMDL
