MODEL 1
REMARK VINA RESULT:      -5.0      0.000      0.000
REMARK  14 active torsions:
REMARK  status: ('A' for Active; 'I' for Inactive)
REMARK    1  A    between atoms: C5_1  and  C6_23 
REMARK    2  A    between atoms: S2_5  and  O6_7 
REMARK    3  A    between atoms: O1_6  and  C1_35 
REMARK    4  A    between atoms: O6_7  and  C6_21 
REMARK    5  A    between atoms: O2_9  and  C2_28 
REMARK    6  A    between atoms: O2_9  and  S_13 
REMARK    7  A    between atoms: C3_10  and  O3_20 
REMARK    8  A    between atoms: C1_11  and  O4_12 
REMARK    9  A    between atoms: O4_12  and  C4_19 
REMARK   10  A    between atoms: C2_15  and  N_29 
REMARK   11  A    between atoms: C5_17  and  C6_21 
REMARK   12  A    between atoms: C6_23  and  O61_33 
REMARK   13  A    between atoms: O3_24  and  C3_26 
REMARK   14  A    between atoms: S1_27  and  N_29 
ROOT
ATOM      1  O5  SGN d5702      61.097  39.593  37.327  0.00  0.00    -0.350 OA
ATOM      2  C2  SGN d5702      63.184  38.498  37.781  0.00  0.00     0.160 C 
ATOM      3  C5  SGN d5702      61.704  40.593  36.545  0.00  0.00     0.181 C 
ATOM      4  C4  SGN d5702      62.989  40.026  35.909  0.00  0.00     0.186 C 
ATOM      5  C3  SGN d5702      63.931  39.591  37.064  0.00  0.00     0.173 C 
ATOM      6  C1  SGN d5702      61.897  39.040  38.375  0.00  0.00     0.278 C 
ENDROOT
BRANCH   4   7
ATOM      7  O4  SGN d5702      63.554  41.099  35.107  0.00  0.00    -0.348 OA
BRANCH   7   8
ATOM      8  C1  IDU d1623      64.459  40.954  34.033  0.00  0.00     0.294 C 
ATOM      9  O5  IDU d1623      63.911  40.198  32.905  0.00  0.00    -0.343 OA
ATOM     10  C5  IDU d1623      64.887  39.932  31.836  0.00  0.00     0.224 C 
ATOM     11  C4  IDU d1623      65.381  41.273  31.270  0.00  0.00     0.077 C 
ATOM     12  C3  IDU d1623      65.988  42.119  32.401  0.00  0.00     0.156 C 
ATOM     13  C2  IDU d1623      64.905  42.314  33.473  0.00  0.00     0.228 C 
BRANCH  10  14
ATOM     14  C6  IDU d1623      64.270  39.145  30.712  0.00  0.00     0.170 C 
ATOM     15  O62 IDU d1623      63.281  39.624  30.135  0.00  0.00    -0.648 OA
BRANCH  14  16
ATOM     16  O61 IDU d1623      64.787  38.047  30.420  0.00  0.00    -0.774 OA
ENDBRANCH  14  16
ENDBRANCH  10  14
BRANCH  12  18
ATOM     18  O3  IDU d1623      67.089  41.448  32.946  0.00  0.00    -0.393 OA
ATOM     19  H   IDU d1623      67.719  42.095  33.300  0.00  0.00     0.210 HD
ENDBRANCH  12  18
BRANCH  13  20
ATOM     20  O2  IDU d1623      63.774  42.930  32.902  0.00  0.00    -0.244 OA
BRANCH  20  21
ATOM     21  S   IDU d1623      63.943  44.540  32.287  0.00  0.00     0.252 S 
ATOM     22  O3S IDU d1623      63.158  45.447  33.037  0.00  0.00    -0.572 OA
ATOM     23  O1S IDU d1623      63.594  44.491  30.899  0.00  0.00    -0.572 OA
ATOM     24  O2S IDU d1623      65.318  45.001  32.414  0.00  0.00    -0.572 OA
ENDBRANCH  20  21
ENDBRANCH  13  20
ENDBRANCH   7   8
ENDBRANCH   4   7
BRANCH   3  25
ATOM     25  C6  SGN d5702      60.703  41.017  35.515  0.00  0.00     0.227 C 
BRANCH  25  26
ATOM     26  O6  SGN d5702      59.946  42.014  36.184  0.00  0.00    -0.254 OA
BRANCH  26  27
ATOM     27  S2  SGN d5702      60.605  43.610  36.311  0.00  0.00     0.251 S 
ATOM     28  O4S SGN d5702      61.424  43.742  37.472  0.00  0.00    -0.572 OA
ATOM     29  O5S SGN d5702      59.519  44.545  36.392  0.00  0.00    -0.572 OA
ATOM     30  O6S SGN d5702      61.411  43.779  35.138  0.00  0.00    -0.572 OA
ENDBRANCH  26  27
ENDBRANCH  25  26
ENDBRANCH   3  25
BRANCH   5  31
ATOM     31  O3  SGN d5702      65.118  39.051  36.535  0.00  0.00    -0.391 OA
ATOM     32  H   SGN d5702      65.023  38.939  35.576  0.00  0.00     0.210 HD
ENDBRANCH   5  31
BRANCH   2  33
ATOM     33  N   SGN d5702      63.969  37.985  38.855  0.00  0.00    -0.189 NA
ATOM     34  H   SGN d5702      63.469  38.137  39.731  0.00  0.00     0.143 HD
BRANCH  33  35
ATOM     35  S1  SGN d5702      64.289  36.257  38.674  0.00  0.00     0.183 S 
ATOM     36  O1S SGN d5702      63.066  35.532  38.955  0.00  0.00    -0.582 OA
ATOM     37  O2S SGN d5702      65.255  35.864  39.647  0.00  0.00    -0.582 OA
ATOM     38  O3S SGN d5702      64.762  36.099  37.312  0.00  0.00    -0.582 OA
ENDBRANCH  33  35
ENDBRANCH   2  33
BRANCH   6  39
ATOM     39  O1  SGN d5702      62.126  39.999  39.381  0.00  0.00    -0.369 OA
ATOM     40  H   SGN d5702      61.321  40.108  39.911  0.00  0.00     0.212 HD
ENDBRANCH   6  39
TORSDOF 14
ENDMDL
MODEL 2
REMARK VINA RESULT:      -5.0      0.917      1.280
REMARK  14 active torsions:
REMARK  status: ('A' for Active; 'I' for Inactive)
REMARK    1  A    between atoms: C5_1  and  C6_23 
REMARK    2  A    between atoms: S2_5  and  O6_7 
REMARK    3  A    between atoms: O1_6  and  C1_35 
REMARK    4  A    between atoms: O6_7  and  C6_21 
REMARK    5  A    between atoms: O2_9  and  C2_28 
REMARK    6  A    between atoms: O2_9  and  S_13 
REMARK    7  A    between atoms: C3_10  and  O3_20 
REMARK    8  A    between atoms: C1_11  and  O4_12 
REMARK    9  A    between atoms: O4_12  and  C4_19 
REMARK   10  A    between atoms: C2_15  and  N_29 
REMARK   11  A    between atoms: C5_17  and  C6_21 
REMARK   12  A    between atoms: C6_23  and  O61_33 
REMARK   13  A    between atoms: O3_24  and  C3_26 
REMARK   14  A    between atoms: S1_27  and  N_29 
ROOT
ATOM      1  O5  SGN d5702      61.112  39.350  37.251  0.00  0.00    -0.350 OA
ATOM      2  C2  SGN d5702      63.237  38.362  37.769  0.00  0.00     0.160 C 
ATOM      3  C5  SGN d5702      61.697  40.483  36.656  0.00  0.00     0.181 C 
ATOM      4  C4  SGN d5702      63.075  40.097  36.084  0.00  0.00     0.186 C 
ATOM      5  C3  SGN d5702      63.948  39.590  37.263  0.00  0.00     0.173 C 
ATOM      6  C1  SGN d5702      61.863  38.729  38.298  0.00  0.00     0.278 C 
ENDROOT
BRANCH   4   7
ATOM      7  O4  SGN d5702      63.614  41.302  35.474  0.00  0.00    -0.348 OA
BRANCH   7   8
ATOM      8  C1  IDU d1623      64.461  41.363  34.345  0.00  0.00     0.294 C 
ATOM      9  O5  IDU d1623      63.786  41.027  33.089  0.00  0.00    -0.343 OA
ATOM     10  C5  IDU d1623      64.688  40.962  31.928  0.00  0.00     0.224 C 
ATOM     11  C4  IDU d1623      65.335  42.342  31.725  0.00  0.00     0.077 C 
ATOM     12  C3  IDU d1623      66.080  42.755  33.005  0.00  0.00     0.156 C 
ATOM     13  C2  IDU d1623      65.063  42.764  34.157  0.00  0.00     0.228 C 
BRANCH  10  14
ATOM     14  C6  IDU d1623      63.941  40.604  30.672  0.00  0.00     0.170 C 
ATOM     15  O62 IDU d1623      63.664  41.514  29.875  0.00  0.00    -0.648 OA
BRANCH  14  16
ATOM     16  O61 IDU d1623      63.637  39.406  30.499  0.00  0.00    -0.774 OA
ENDBRANCH  14  16
ENDBRANCH  10  14
BRANCH  12  18
ATOM     18  O3  IDU d1623      67.100  41.833  33.270  0.00  0.00    -0.393 OA
ATOM     19  H   IDU d1623      66.708  40.979  33.510  0.00  0.00     0.210 HD
ENDBRANCH  12  18
BRANCH  13  20
ATOM     20  O2  IDU d1623      64.007  43.644  33.853  0.00  0.00    -0.244 OA
BRANCH  20  21
ATOM     21  S   IDU d1623      64.256  45.340  34.108  0.00  0.00     0.252 S 
ATOM     22  O3S IDU d1623      63.715  45.742  35.352  0.00  0.00    -0.572 OA
ATOM     23  O1S IDU d1623      63.678  46.015  32.985  0.00  0.00    -0.572 OA
ATOM     24  O2S IDU d1623      65.676  45.650  34.169  0.00  0.00    -0.572 OA
ENDBRANCH  20  21
ENDBRANCH  13  20
ENDBRANCH   7   8
ENDBRANCH   4   7
BRANCH   3  25
ATOM     25  C6  SGN d5702      60.756  40.960  35.594  0.00  0.00     0.227 C 
BRANCH  25  26
ATOM     26  O6  SGN d5702      59.983  41.948  36.258  0.00  0.00    -0.254 OA
BRANCH  26  27
ATOM     27  S2  SGN d5702      60.584  43.570  36.317  0.00  0.00     0.251 S 
ATOM     28  O4S SGN d5702      61.573  43.720  37.334  0.00  0.00    -0.572 OA
ATOM     29  O5S SGN d5702      59.486  44.451  36.593  0.00  0.00    -0.572 OA
ATOM     30  O6S SGN d5702      61.182  43.797  35.034  0.00  0.00    -0.572 OA
ENDBRANCH  26  27
ENDBRANCH  25  26
ENDBRANCH   3  25
BRANCH   5  31
ATOM     31  O3  SGN d5702      65.217  39.211  36.789  0.00  0.00    -0.391 OA
ATOM     32  H   SGN d5702      65.649  38.638  37.442  0.00  0.00     0.210 HD
ENDBRANCH   5  31
BRANCH   2  33
ATOM     33  N   SGN d5702      63.968  37.776  38.844  0.00  0.00    -0.189 NA
ATOM     34  H   SGN d5702      63.354  37.696  39.655  0.00  0.00     0.143 HD
BRANCH  33  35
ATOM     35  S1  SGN d5702      64.579  36.171  38.431  0.00  0.00     0.183 S 
ATOM     36  O1S SGN d5702      65.885  36.007  39.037  0.00  0.00    -0.582 OA
ATOM     37  O2S SGN d5702      64.749  36.095  37.016  0.00  0.00    -0.582 OA
ATOM     38  O3S SGN d5702      63.581  35.245  38.930  0.00  0.00    -0.582 OA
ENDBRANCH  33  35
ENDBRANCH   2  33
BRANCH   6  39
ATOM     39  O1  SGN d5702      61.922  39.566  39.428  0.00  0.00    -0.369 OA
ATOM     40  H   SGN d5702      61.132  39.429  39.973  0.00  0.00     0.212 HD
ENDBRANCH   6  39
TORSDOF 14
ENDMDL
MODEL 3
REMARK VINA RESULT:      -4.9      0.700      1.047
REMARK  14 active torsions:
REMARK  status: ('A' for Active; 'I' for Inactive)
REMARK    1  A    between atoms: C5_1  and  C6_23 
REMARK    2  A    between atoms: S2_5  and  O6_7 
REMARK    3  A    between atoms: O1_6  and  C1_35 
REMARK    4  A    between atoms: O6_7  and  C6_21 
REMARK    5  A    between atoms: O2_9  and  C2_28 
REMARK    6  A    between atoms: O2_9  and  S_13 
REMARK    7  A    between atoms: C3_10  and  O3_20 
REMARK    8  A    between atoms: C1_11  and  O4_12 
REMARK    9  A    between atoms: O4_12  and  C4_19 
REMARK   10  A    between atoms: C2_15  and  N_29 
REMARK   11  A    between atoms: C5_17  and  C6_21 
REMARK   12  A    between atoms: C6_23  and  O61_33 
REMARK   13  A    between atoms: O3_24  and  C3_26 
REMARK   14  A    between atoms: S1_27  and  N_29 
ROOT
ATOM      1  O5  SGN d5702      61.149  39.387  37.328  0.00  0.00    -0.350 OA
ATOM      2  C2  SGN d5702      63.210  38.303  37.911  0.00  0.00     0.160 C 
ATOM      3  C5  SGN d5702      61.802  40.452  36.681  0.00  0.00     0.181 C 
ATOM      4  C4  SGN d5702      63.158  39.957  36.139  0.00  0.00     0.186 C 
ATOM      5  C3  SGN d5702      63.994  39.459  37.348  0.00  0.00     0.173 C 
ATOM      6  C1  SGN d5702      61.857  38.776  38.410  0.00  0.00     0.278 C 
ENDROOT
BRANCH   4   7
ATOM      7  O4  SGN d5702      63.769  41.096  35.473  0.00  0.00    -0.348 OA
BRANCH   7   8
ATOM      8  C1  IDU d1623      64.661  41.046  34.378  0.00  0.00     0.294 C 
ATOM      9  O5  IDU d1623      64.043  40.558  33.144  0.00  0.00    -0.343 OA
ATOM     10  C5  IDU d1623      64.992  40.381  32.033  0.00  0.00     0.224 C 
ATOM     11  C4  IDU d1623      65.626  41.742  31.701  0.00  0.00     0.077 C 
ATOM     12  C3  IDU d1623      66.311  42.311  32.953  0.00  0.00     0.156 C 
ATOM     13  C2  IDU d1623      65.248  42.430  34.056  0.00  0.00     0.228 C 
BRANCH  10  14
ATOM     14  C6  IDU d1623      64.303  39.869  30.797  0.00  0.00     0.170 C 
ATOM     15  O62 IDU d1623      63.647  40.673  30.117  0.00  0.00    -0.648 OA
BRANCH  14  16
ATOM     16  O61 IDU d1623      64.426  38.657  30.524  0.00  0.00    -0.774 OA
ENDBRANCH  14  16
ENDBRANCH  10  14
BRANCH  12  18
ATOM     18  O3  IDU d1623      67.334  41.446  33.360  0.00  0.00    -0.393 OA
ATOM     19  H   IDU d1623      67.664  40.952  32.593  0.00  0.00     0.210 HD
ENDBRANCH  12  18
BRANCH  13  20
ATOM     20  O2  IDU d1623      64.191  43.248  33.614  0.00  0.00    -0.244 OA
BRANCH  20  21
ATOM     21  S   IDU d1623      64.330  44.959  33.848  0.00  0.00     0.252 S 
ATOM     22  O3S IDU d1623      64.205  45.287  35.219  0.00  0.00    -0.572 OA
ATOM     23  O1S IDU d1623      63.335  45.570  33.018  0.00  0.00    -0.572 OA
ATOM     24  O2S IDU d1623      65.644  45.432  33.440  0.00  0.00    -0.572 OA
ENDBRANCH  20  21
ENDBRANCH  13  20
ENDBRANCH   7   8
ENDBRANCH   4   7
BRANCH   3  25
ATOM     25  C6  SGN d5702      60.896  40.929  35.589  0.00  0.00     0.227 C 
BRANCH  25  26
ATOM     26  O6  SGN d5702      60.075  41.888  36.238  0.00  0.00    -0.254 OA
BRANCH  26  27
ATOM     27  S2  SGN d5702      60.591  43.540  36.262  0.00  0.00     0.251 S 
ATOM     28  O4S SGN d5702      59.488  44.427  36.447  0.00  0.00    -0.572 OA
ATOM     29  O5S SGN d5702      61.228  43.835  35.010  0.00  0.00    -0.572 OA
ATOM     30  O6S SGN d5702      61.477  43.643  37.384  0.00  0.00    -0.572 OA
ENDBRANCH  26  27
ENDBRANCH  25  26
ENDBRANCH   3  25
BRANCH   5  31
ATOM     31  O3  SGN d5702      65.241  38.982  36.903  0.00  0.00    -0.391 OA
ATOM     32  H   SGN d5702      65.802  39.732  36.651  0.00  0.00     0.210 HD
ENDBRANCH   5  31
BRANCH   2  33
ATOM     33  N   SGN d5702      63.900  37.730  39.019  0.00  0.00    -0.189 NA
ATOM     34  H   SGN d5702      63.287  37.750  39.835  0.00  0.00     0.143 HD
BRANCH  33  35
ATOM     35  S1  SGN d5702      64.380  36.059  38.707  0.00  0.00     0.183 S 
ATOM     36  O1S SGN d5702      63.369  35.180  39.260  0.00  0.00    -0.582 OA
ATOM     37  O2S SGN d5702      65.601  35.796  39.395  0.00  0.00    -0.582 OA
ATOM     38  O3S SGN d5702      64.513  35.965  37.265  0.00  0.00    -0.582 OA
ENDBRANCH  33  35
ENDBRANCH   2  33
BRANCH   6  39
ATOM     39  O1  SGN d5702      61.961  39.665  39.497  0.00  0.00    -0.369 OA
ATOM     40  H   SGN d5702      62.348  39.202  40.257  0.00  0.00     0.212 HD
ENDBRANCH   6  39
TORSDOF 14
ENDMDL
MODEL 4
REMARK VINA RESULT:      -4.9      0.576      1.429
REMARK  14 active torsions:
REMARK  status: ('A' for Active; 'I' for Inactive)
REMARK    1  A    between atoms: C5_1  and  C6_23 
REMARK    2  A    between atoms: S2_5  and  O6_7 
REMARK    3  A    between atoms: O1_6  and  C1_35 
REMARK    4  A    between atoms: O6_7  and  C6_21 
REMARK    5  A    between atoms: O2_9  and  C2_28 
REMARK    6  A    between atoms: O2_9  and  S_13 
REMARK    7  A    between atoms: C3_10  and  O3_20 
REMARK    8  A    between atoms: C1_11  and  O4_12 
REMARK    9  A    between atoms: O4_12  and  C4_19 
REMARK   10  A    between atoms: C2_15  and  N_29 
REMARK   11  A    between atoms: C5_17  and  C6_21 
REMARK   12  A    between atoms: C6_23  and  O61_33 
REMARK   13  A    between atoms: O3_24  and  C3_26 
REMARK   14  A    between atoms: S1_27  and  N_29 
ROOT
ATOM      1  O5  SGN d5702      61.098  39.473  37.374  0.00  0.00    -0.350 OA
ATOM      2  C2  SGN d5702      63.152  38.342  37.889  0.00  0.00     0.160 C 
ATOM      3  C5  SGN d5702      61.751  40.503  36.673  0.00  0.00     0.181 C 
ATOM      4  C4  SGN d5702      63.065  39.955  36.082  0.00  0.00     0.186 C 
ATOM      5  C3  SGN d5702      63.942  39.462  37.264  0.00  0.00     0.173 C 
ATOM      6  C1  SGN d5702      61.838  38.866  38.438  0.00  0.00     0.278 C 
ENDROOT
BRANCH   4   7
ATOM      7  O4  SGN d5702      63.678  41.060  35.361  0.00  0.00    -0.348 OA
BRANCH   7   8
ATOM      8  C1  IDU d1623      64.584  40.957  34.283  0.00  0.00     0.294 C 
ATOM      9  O5  IDU d1623      63.980  40.422  33.061  0.00  0.00    -0.343 OA
ATOM     10  C5  IDU d1623      64.943  40.191  31.972  0.00  0.00     0.224 C 
ATOM     11  C4  IDU d1623      65.594  41.531  31.593  0.00  0.00     0.077 C 
ATOM     12  C3  IDU d1623      66.267  42.146  32.830  0.00  0.00     0.156 C 
ATOM     13  C2  IDU d1623      65.190  42.320  33.912  0.00  0.00     0.228 C 
BRANCH  10  14
ATOM     14  C6  IDU d1623      64.266  39.633  30.750  0.00  0.00     0.170 C 
ATOM     15  O62 IDU d1623      64.371  38.418  30.526  0.00  0.00    -0.648 OA
BRANCH  14  16
ATOM     16  O61 IDU d1623      63.635  40.427  30.023  0.00  0.00    -0.774 OA
ENDBRANCH  14  16
ENDBRANCH  10  14
BRANCH  12  18
ATOM     18  O3  IDU d1623      67.276  41.289  33.289  0.00  0.00    -0.393 OA
ATOM     19  H   IDU d1623      67.389  41.406  34.245  0.00  0.00     0.210 HD
ENDBRANCH  12  18
BRANCH  13  20
ATOM     20  O2  IDU d1623      64.147  43.129  33.420  0.00  0.00    -0.244 OA
BRANCH  20  21
ATOM     21  S   IDU d1623      64.324  44.848  33.533  0.00  0.00     0.252 S 
ATOM     22  O3S IDU d1623      65.484  45.277  32.844  0.00  0.00    -0.572 OA
ATOM     23  O1S IDU d1623      64.332  45.172  34.928  0.00  0.00    -0.572 OA
ATOM     24  O2S IDU d1623      63.206  45.526  32.895  0.00  0.00    -0.572 OA
ENDBRANCH  20  21
ENDBRANCH  13  20
ENDBRANCH   7   8
ENDBRANCH   4   7
BRANCH   3  25
ATOM     25  C6  SGN d5702      60.809  40.980  35.611  0.00  0.00     0.227 C 
BRANCH  25  26
ATOM     26  O6  SGN d5702      60.025  41.955  36.282  0.00  0.00    -0.254 OA
BRANCH  26  27
ATOM     27  S2  SGN d5702      60.572  43.597  36.292  0.00  0.00     0.251 S 
ATOM     28  O4S SGN d5702      59.482  44.507  36.433  0.00  0.00    -0.572 OA
ATOM     29  O5S SGN d5702      61.247  43.858  35.052  0.00  0.00    -0.572 OA
ATOM     30  O6S SGN d5702      61.431  43.701  37.436  0.00  0.00    -0.572 OA
ENDBRANCH  26  27
ENDBRANCH  25  26
ENDBRANCH   3  25
BRANCH   5  31
ATOM     31  O3  SGN d5702      65.153  38.938  36.775  0.00  0.00    -0.391 OA
ATOM     32  H   SGN d5702      65.066  37.979  36.655  0.00  0.00     0.210 HD
ENDBRANCH   5  31
BRANCH   2  33
ATOM     33  N   SGN d5702      63.875  37.775  38.979  0.00  0.00    -0.189 NA
ATOM     34  H   SGN d5702      63.300  37.828  39.820  0.00  0.00     0.143 HD
BRANCH  33  35
ATOM     35  S1  SGN d5702      64.298  36.085  38.684  0.00  0.00     0.183 S 
ATOM     36  O1S SGN d5702      65.012  35.582  39.840  0.00  0.00    -0.582 OA
ATOM     37  O2S SGN d5702      65.187  36.022  37.570  0.00  0.00    -0.582 OA
ATOM     38  O3S SGN d5702      63.035  35.415  38.438  0.00  0.00    -0.582 OA
ENDBRANCH  33  35
ENDBRANCH   2  33
BRANCH   6  39
ATOM     39  O1  SGN d5702      62.016  39.776  39.497  0.00  0.00    -0.369 OA
ATOM     40  H   SGN d5702      62.319  40.628  39.143  0.00  0.00     0.212 HD
ENDBRANCH   6  39
TORSDOF 14
ENDMDL
MODEL 5
REMARK VINA RESULT:      -4.7      1.231      1.633
REMARK  14 active torsions:
REMARK  status: ('A' for Active; 'I' for Inactive)
REMARK    1  A    between atoms: C5_1  and  C6_23 
REMARK    2  A    between atoms: S2_5  and  O6_7 
REMARK    3  A    between atoms: O1_6  and  C1_35 
REMARK    4  A    between atoms: O6_7  and  C6_21 
REMARK    5  A    between atoms: O2_9  and  C2_28 
REMARK    6  A    between atoms: O2_9  and  S_13 
REMARK    7  A    between atoms: C3_10  and  O3_20 
REMARK    8  A    between atoms: C1_11  and  O4_12 
REMARK    9  A    between atoms: O4_12  and  C4_19 
REMARK   10  A    between atoms: C2_15  and  N_29 
REMARK   11  A    between atoms: C5_17  and  C6_21 
REMARK   12  A    between atoms: C6_23  and  O61_33 
REMARK   13  A    between atoms: O3_24  and  C3_26 
REMARK   14  A    between atoms: S1_27  and  N_29 
ROOT
ATOM      1  O5  SGN d5702      61.092  39.325  37.224  0.00  0.00    -0.350 OA
ATOM      2  C2  SGN d5702      63.247  38.455  37.825  0.00  0.00     0.160 C 
ATOM      3  C5  SGN d5702      61.632  40.517  36.706  0.00  0.00     0.181 C 
ATOM      4  C4  SGN d5702      63.062  40.243  36.199  0.00  0.00     0.186 C 
ATOM      5  C3  SGN d5702      63.901  39.745  37.406  0.00  0.00     0.173 C 
ATOM      6  C1  SGN d5702      61.825  38.711  38.287  0.00  0.00     0.278 C 
ENDROOT
BRANCH   4   7
ATOM      7  O4  SGN d5702      63.552  41.505  35.666  0.00  0.00    -0.348 OA
BRANCH   7   8
ATOM      8  C1  IDU d1623      64.443  41.666  34.582  0.00  0.00     0.294 C 
ATOM      9  O5  IDU d1623      63.808  41.497  33.273  0.00  0.00    -0.343 OA
ATOM     10  C5  IDU d1623      64.751  41.536  32.144  0.00  0.00     0.224 C 
ATOM     11  C4  IDU d1623      65.445  42.908  32.124  0.00  0.00     0.077 C 
ATOM     12  C3  IDU d1623      66.151  43.149  33.468  0.00  0.00     0.156 C 
ATOM     13  C2  IDU d1623      65.092  43.060  34.577  0.00  0.00     0.228 C 
BRANCH  10  14
ATOM     14  C6  IDU d1623      64.043  41.348  30.830  0.00  0.00     0.170 C 
ATOM     15  O62 IDU d1623      63.750  42.358  30.172  0.00  0.00    -0.648 OA
BRANCH  14  16
ATOM     16  O61 IDU d1623      63.786  40.180  30.471  0.00  0.00    -0.774 OA
ENDBRANCH  14  16
ENDBRANCH  10  14
BRANCH  12  18
ATOM     18  O3  IDU d1623      67.134  42.170  33.661  0.00  0.00    -0.393 OA
ATOM     19  H   IDU d1623      67.045  41.795  34.551  0.00  0.00     0.210 HD
ENDBRANCH  12  18
BRANCH  13  20
ATOM     20  O2  IDU d1623      64.072  44.002  34.340  0.00  0.00    -0.244 OA
BRANCH  20  21
ATOM     21  S   IDU d1623      64.373  45.655  34.763  0.00  0.00     0.252 S 
ATOM     22  O3S IDU d1623      65.746  45.858  35.040  0.00  0.00    -0.572 OA
ATOM     23  O1S IDU d1623      63.513  45.961  35.866  0.00  0.00    -0.572 OA
ATOM     24  O2S IDU d1623      64.053  46.539  33.652  0.00  0.00    -0.572 OA
ENDBRANCH  20  21
ENDBRANCH  13  20
ENDBRANCH   7   8
ENDBRANCH   4   7
BRANCH   3  25
ATOM     25  C6  SGN d5702      60.721  40.974  35.610  0.00  0.00     0.227 C 
BRANCH  25  26
ATOM     26  O6  SGN d5702      59.925  41.969  36.237  0.00  0.00    -0.254 OA
BRANCH  26  27
ATOM     27  S2  SGN d5702      60.530  43.589  36.312  0.00  0.00     0.251 S 
ATOM     28  O4S SGN d5702      61.509  43.731  37.341  0.00  0.00    -0.572 OA
ATOM     29  O5S SGN d5702      59.431  44.472  36.582  0.00  0.00    -0.572 OA
ATOM     30  O6S SGN d5702      61.143  43.822  35.037  0.00  0.00    -0.572 OA
ENDBRANCH  26  27
ENDBRANCH  25  26
ENDBRANCH   3  25
BRANCH   5  31
ATOM     31  O3  SGN d5702      65.217  39.468  36.991  0.00  0.00    -0.391 OA
ATOM     32  H   SGN d5702      65.413  38.531  37.144  0.00  0.00     0.210 HD
ENDBRANCH   5  31
BRANCH   2  33
ATOM     33  N   SGN d5702      63.955  37.874  38.917  0.00  0.00    -0.189 NA
ATOM     34  H   SGN d5702      63.306  37.730  39.692  0.00  0.00     0.143 HD
BRANCH  33  35
ATOM     35  S1  SGN d5702      64.679  36.322  38.484  0.00  0.00     0.183 S 
ATOM     36  O1S SGN d5702      63.806  35.656  37.538  0.00  0.00    -0.582 OA
ATOM     37  O2S SGN d5702      64.749  35.506  39.652  0.00  0.00    -0.582 OA
ATOM     38  O3S SGN d5702      65.986  36.649  37.946  0.00  0.00    -0.582 OA
ENDBRANCH  33  35
ENDBRANCH   2  33
BRANCH   6  39
ATOM     39  O1  SGN d5702      61.766  39.503  39.449  0.00  0.00    -0.369 OA
ATOM     40  H   SGN d5702      62.549  39.332  39.997  0.00  0.00     0.212 HD
ENDBRANCH   6  39
TORSDOF 14
ENDMDL
MODEL 6
REMARK VINA RESULT:      -4.5      1.595      2.325
REMARK  14 active torsions:
REMARK  status: ('A' for Active; 'I' for Inactive)
REMARK    1  A    between atoms: C5_1  and  C6_23 
REMARK    2  A    between atoms: S2_5  and  O6_7 
REMARK    3  A    between atoms: O1_6  and  C1_35 
REMARK    4  A    between atoms: O6_7  and  C6_21 
REMARK    5  A    between atoms: O2_9  and  C2_28 
REMARK    6  A    between atoms: O2_9  and  S_13 
REMARK    7  A    between atoms: C3_10  and  O3_20 
REMARK    8  A    between atoms: C1_11  and  O4_12 
REMARK    9  A    between atoms: O4_12  and  C4_19 
REMARK   10  A    between atoms: C2_15  and  N_29 
REMARK   11  A    between atoms: C5_17  and  C6_21 
REMARK   12  A    between atoms: C6_23  and  O61_33 
REMARK   13  A    between atoms: O3_24  and  C3_26 
REMARK   14  A    between atoms: S1_27  and  N_29 
ROOT
ATOM      1  O5  SGN d5702      61.120  39.191  37.236  0.00  0.00    -0.350 OA
ATOM      2  C2  SGN d5702      63.161  38.208  38.033  0.00  0.00     0.160 C 
ATOM      3  C5  SGN d5702      61.748  40.402  36.890  0.00  0.00     0.181 C 
ATOM      4  C4  SGN d5702      63.226  40.124  36.548  0.00  0.00     0.186 C 
ATOM      5  C3  SGN d5702      63.891  39.506  37.807  0.00  0.00     0.173 C 
ATOM      6  C1  SGN d5702      61.696  38.472  38.331  0.00  0.00     0.278 C 
ENDROOT
BRANCH   4   7
ATOM      7  O4  SGN d5702      63.807  41.406  36.187  0.00  0.00    -0.348 OA
BRANCH   7   8
ATOM      8  C1  IDU d1623      64.698  41.651  35.118  0.00  0.00     0.294 C 
ATOM      9  O5  IDU d1623      64.045  41.678  33.808  0.00  0.00    -0.343 OA
ATOM     10  C5  IDU d1623      64.980  41.803  32.679  0.00  0.00     0.224 C 
ATOM     11  C4  IDU d1623      65.748  43.128  32.816  0.00  0.00     0.077 C 
ATOM     12  C3  IDU d1623      66.477  43.164  34.169  0.00  0.00     0.156 C 
ATOM     13  C2  IDU d1623      65.422  42.998  35.274  0.00  0.00     0.228 C 
BRANCH  10  14
ATOM     14  C6  IDU d1623      64.253  41.815  31.362  0.00  0.00     0.170 C 
ATOM     15  O62 IDU d1623      63.992  42.913  30.847  0.00  0.00    -0.648 OA
BRANCH  14  16
ATOM     16  O61 IDU d1623      63.949  40.715  30.857  0.00  0.00    -0.774 OA
ENDBRANCH  14  16
ENDBRANCH  10  14
BRANCH  12  18
ATOM     18  O3  IDU d1623      67.406  42.118  34.228  0.00  0.00    -0.393 OA
ATOM     19  H   IDU d1623      67.531  41.849  35.152  0.00  0.00     0.210 HD
ENDBRANCH  12  18
BRANCH  13  20
ATOM     20  O2  IDU d1623      64.455  44.015  35.167  0.00  0.00    -0.244 OA
BRANCH  20  21
ATOM     21  S   IDU d1623      64.583  45.378  36.229  0.00  0.00     0.252 S 
ATOM     22  O3S IDU d1623      65.729  46.147  35.919  0.00  0.00    -0.572 OA
ATOM     23  O1S IDU d1623      64.581  44.862  37.565  0.00  0.00    -0.572 OA
ATOM     24  O2S IDU d1623      63.445  46.270  36.064  0.00  0.00    -0.572 OA
ENDBRANCH  20  21
ENDBRANCH  13  20
ENDBRANCH   7   8
ENDBRANCH   4   7
BRANCH   3  25
ATOM     25  C6  SGN d5702      60.997  40.973  35.729  0.00  0.00     0.227 C 
BRANCH  25  26
ATOM     26  O6  SGN d5702      60.153  41.944  36.329  0.00  0.00    -0.254 OA
BRANCH  26  27
ATOM     27  S2  SGN d5702      60.620  43.609  36.251  0.00  0.00     0.251 S 
ATOM     28  O4S SGN d5702      59.488  44.472  36.357  0.00  0.00    -0.572 OA
ATOM     29  O5S SGN d5702      61.273  43.840  34.994  0.00  0.00    -0.572 OA
ATOM     30  O6S SGN d5702      61.480  43.813  37.380  0.00  0.00    -0.572 OA
ENDBRANCH  26  27
ENDBRANCH  25  26
ENDBRANCH   3  25
BRANCH   5  31
ATOM     31  O3  SGN d5702      65.243  39.220  37.542  0.00  0.00    -0.391 OA
ATOM     32  H   SGN d5702      65.327  38.299  37.249  0.00  0.00     0.210 HD
ENDBRANCH   5  31
BRANCH   2  33
ATOM     33  N   SGN d5702      63.709  37.521  39.155  0.00  0.00    -0.189 NA
ATOM     34  H   SGN d5702      62.969  37.364  39.840  0.00  0.00     0.143 HD
BRANCH  33  35
ATOM     35  S1  SGN d5702      64.404  35.962  38.700  0.00  0.00     0.183 S 
ATOM     36  O1S SGN d5702      64.918  35.322  39.895  0.00  0.00    -0.582 OA
ATOM     37  O2S SGN d5702      65.508  36.189  37.826  0.00  0.00    -0.582 OA
ATOM     38  O3S SGN d5702      63.321  35.234  38.066  0.00  0.00    -0.582 OA
ENDBRANCH  33  35
ENDBRANCH   2  33
BRANCH   6  39
ATOM     39  O1  SGN d5702      61.506  39.172  39.537  0.00  0.00    -0.369 OA
ATOM     40  H   SGN d5702      61.746  40.104  39.411  0.00  0.00     0.212 HD
ENDBRANCH   6  39
TORSDOF 14
ENDMDL
MODEL 7
REMARK VINA RESULT:      -4.3      3.265      7.975
REMARK  14 active torsions:
REMARK  status: ('A' for Active; 'I' for Inactive)
REMARK    1  A    between atoms: C5_1  and  C6_23 
REMARK    2  A    between atoms: S2_5  and  O6_7 
REMARK    3  A    between atoms: O1_6  and  C1_35 
REMARK    4  A    between atoms: O6_7  and  C6_21 
REMARK    5  A    between atoms: O2_9  and  C2_28 
REMARK    6  A    between atoms: O2_9  and  S_13 
REMARK    7  A    between atoms: C3_10  and  O3_20 
REMARK    8  A    between atoms: C1_11  and  O4_12 
REMARK    9  A    between atoms: O4_12  and  C4_19 
REMARK   10  A    between atoms: C2_15  and  N_29 
REMARK   11  A    between atoms: C5_17  and  C6_21 
REMARK   12  A    between atoms: C6_23  and  O61_33 
REMARK   13  A    between atoms: O3_24  and  C3_26 
REMARK   14  A    between atoms: S1_27  and  N_29 
ROOT
ATOM      1  O5  SGN d5702      64.060  41.712  32.794  0.00  0.00    -0.350 OA
ATOM      2  C2  SGN d5702      64.823  43.977  32.575  0.00  0.00     0.160 C 
ATOM      3  C5  SGN d5702      64.309  41.680  34.178  0.00  0.00     0.181 C 
ATOM      4  C4  SGN d5702      64.184  43.108  34.746  0.00  0.00     0.186 C 
ATOM      5  C3  SGN d5702      65.234  43.994  34.024  0.00  0.00     0.173 C 
ATOM      6  C1  SGN d5702      64.905  42.567  32.020  0.00  0.00     0.278 C 
ENDROOT
BRANCH   4   7
ATOM      7  O4  SGN d5702      64.436  43.001  36.174  0.00  0.00    -0.348 OA
BRANCH   7   8
ATOM      8  C1  IDU d1623      63.967  43.879  37.176  0.00  0.00     0.294 C 
ATOM      9  O5  IDU d1623      62.515  44.069  37.152  0.00  0.00    -0.343 OA
ATOM     10  C5  IDU d1623      62.031  45.079  38.107  0.00  0.00     0.224 C 
ATOM     11  C4  IDU d1623      62.394  44.629  39.531  0.00  0.00     0.077 C 
ATOM     12  C3  IDU d1623      63.914  44.425  39.637  0.00  0.00     0.156 C 
ATOM     13  C2  IDU d1623      64.320  43.380  38.586  0.00  0.00     0.228 C 
BRANCH  10  14
ATOM     14  C6  IDU d1623      60.536  45.237  38.030  0.00  0.00     0.170 C 
ATOM     15  O62 IDU d1623      59.959  45.808  38.967  0.00  0.00    -0.648 OA
BRANCH  14  16
ATOM     16  O61 IDU d1623      59.956  44.781  37.023  0.00  0.00    -0.774 OA
ENDBRANCH  14  16
ENDBRANCH  10  14
BRANCH  12  18
ATOM     18  O3  IDU d1623      64.567  45.638  39.386  0.00  0.00    -0.393 OA
ATOM     19  H   IDU d1623      65.503  45.468  39.197  0.00  0.00     0.210 HD
ENDBRANCH  12  18
BRANCH  13  20
ATOM     20  O2  IDU d1623      63.610  42.184  38.803  0.00  0.00    -0.244 OA
BRANCH  20  21
ATOM     21  S   IDU d1623      64.517  40.725  39.027  0.00  0.00     0.252 S 
ATOM     22  O3S IDU d1623      64.136  39.749  38.075  0.00  0.00    -0.572 OA
ATOM     23  O1S IDU d1623      64.310  40.315  40.383  0.00  0.00    -0.572 OA
ATOM     24  O2S IDU d1623      65.936  40.960  38.813  0.00  0.00    -0.572 OA
ENDBRANCH  20  21
ENDBRANCH  13  20
ENDBRANCH   7   8
ENDBRANCH   4   7
BRANCH   3  25
ATOM     25  C6  SGN d5702      63.314  40.741  34.785  0.00  0.00     0.227 C 
BRANCH  25  26
ATOM     26  O6  SGN d5702      62.082  41.433  34.646  0.00  0.00    -0.254 OA
BRANCH  26  27
ATOM     27  S2  SGN d5702      60.714  40.879  35.550  0.00  0.00     0.251 S 
ATOM     28  O4S SGN d5702      61.095  40.440  36.853  0.00  0.00    -0.572 OA
ATOM     29  O5S SGN d5702      60.113  39.785  34.841  0.00  0.00    -0.572 OA
ATOM     30  O6S SGN d5702      59.852  42.019  35.665  0.00  0.00    -0.572 OA
ENDBRANCH  26  27
ENDBRANCH  25  26
ENDBRANCH   3  25
BRANCH   5  31
ATOM     31  O3  SGN d5702      65.151  45.316  34.498  0.00  0.00    -0.391 OA
ATOM     32  H   SGN d5702      64.651  45.331  35.329  0.00  0.00     0.210 HD
ENDBRANCH   5  31
BRANCH   2  33
ATOM     33  N   SGN d5702      65.700  44.794  31.802  0.00  0.00    -0.189 NA
ATOM     34  H   SGN d5702      66.142  44.217  31.086  0.00  0.00     0.143 HD
BRANCH  33  35
ATOM     35  S1  SGN d5702      64.843  46.123  31.016  0.00  0.00     0.183 S 
ATOM     36  O1S SGN d5702      63.922  45.566  30.046  0.00  0.00    -0.582 OA
ATOM     37  O2S SGN d5702      65.788  46.920  30.303  0.00  0.00    -0.582 OA
ATOM     38  O3S SGN d5702      64.193  46.846  32.092  0.00  0.00    -0.582 OA
ENDBRANCH  33  35
ENDBRANCH   2  33
BRANCH   6  39
ATOM     39  O1  SGN d5702      66.222  42.070  31.996  0.00  0.00    -0.369 OA
ATOM     40  H   SGN d5702      66.203  41.113  31.840  0.00  0.00     0.212 HD
ENDBRANCH   6  39
TORSDOF 14
ENDMDL
MODEL 8
REMARK VINA RESULT:      -4.2      3.247      6.073
REMARK  14 active torsions:
REMARK  status: ('A' for Active; 'I' for Inactive)
REMARK    1  A    between atoms: C5_1  and  C6_23 
REMARK    2  A    between atoms: S2_5  and  O6_7 
REMARK    3  A    between atoms: O1_6  and  C1_35 
REMARK    4  A    between atoms: O6_7  and  C6_21 
REMARK    5  A    between atoms: O2_9  and  C2_28 
REMARK    6  A    between atoms: O2_9  and  S_13 
REMARK    7  A    between atoms: C3_10  and  O3_20 
REMARK    8  A    between atoms: C1_11  and  O4_12 
REMARK    9  A    between atoms: O4_12  and  C4_19 
REMARK   10  A    between atoms: C2_15  and  N_29 
REMARK   11  A    between atoms: C5_17  and  C6_21 
REMARK   12  A    between atoms: C6_23  and  O61_33 
REMARK   13  A    between atoms: O3_24  and  C3_26 
REMARK   14  A    between atoms: S1_27  and  N_29 
ROOT
ATOM      1  O5  SGN d5702      63.524  37.494  38.168  0.00  0.00    -0.350 OA
ATOM      2  C2  SGN d5702      62.500  37.542  40.339  0.00  0.00     0.160 C 
ATOM      3  C5  SGN d5702      63.104  38.800  37.856  0.00  0.00     0.181 C 
ATOM      4  C4  SGN d5702      62.964  39.609  39.161  0.00  0.00     0.186 C 
ATOM      5  C3  SGN d5702      61.907  38.895  40.045  0.00  0.00     0.173 C 
ATOM      6  C1  SGN d5702      62.678  36.755  39.054  0.00  0.00     0.278 C 
ENDROOT
BRANCH   4   7
ATOM      7  O4  SGN d5702      62.546  40.945  38.767  0.00  0.00    -0.348 OA
BRANCH   7   8
ATOM      8  C1  IDU d1623      63.014  42.163  39.308  0.00  0.00     0.294 C 
ATOM      9  O5  IDU d1623      64.433  42.412  39.046  0.00  0.00    -0.343 OA
ATOM     10  C5  IDU d1623      64.960  43.613  39.714  0.00  0.00     0.224 C 
ATOM     11  C4  IDU d1623      64.194  44.843  39.200  0.00  0.00     0.077 C 
ATOM     12  C3  IDU d1623      62.690  44.659  39.458  0.00  0.00     0.156 C 
ATOM     13  C2  IDU d1623      62.247  43.371  38.748  0.00  0.00     0.228 C 
BRANCH  10  14
ATOM     14  C6  IDU d1623      66.422  43.810  39.416  0.00  0.00     0.170 C 
ATOM     15  O62 IDU d1623      67.159  42.813  39.414  0.00  0.00    -0.648 OA
BRANCH  14  16
ATOM     16  O61 IDU d1623      66.816  44.972  39.186  0.00  0.00    -0.774 OA
ENDBRANCH  14  16
ENDBRANCH  10  14
BRANCH  12  18
ATOM     18  O3  IDU d1623      62.462  44.551  40.836  0.00  0.00    -0.393 OA
ATOM     19  H   IDU d1623      61.567  44.865  41.041  0.00  0.00     0.210 HD
ENDBRANCH  12  18
BRANCH  13  20
ATOM     20  O2  IDU d1623      62.540  43.460  37.373  0.00  0.00    -0.244 OA
BRANCH  20  21
ATOM     21  S   IDU d1623      61.223  43.381  36.250  0.00  0.00     0.252 S 
ATOM     22  O3S IDU d1623      60.626  42.098  36.270  0.00  0.00    -0.572 OA
ATOM     23  O1S IDU d1623      61.750  43.750  34.971  0.00  0.00    -0.572 OA
ATOM     24  O2S IDU d1623      60.173  44.318  36.619  0.00  0.00    -0.572 OA
ENDBRANCH  20  21
ENDBRANCH  13  20
ENDBRANCH   7   8
ENDBRANCH   4   7
BRANCH   3  25
ATOM     25  C6  SGN d5702      64.129  39.385  36.935  0.00  0.00     0.227 C 
BRANCH  25  26
ATOM     26  O6  SGN d5702      63.348  40.035  35.944  0.00  0.00    -0.254 OA
BRANCH  26  27
ATOM     27  S2  SGN d5702      64.159  40.866  34.661  0.00  0.00     0.251 S 
ATOM     28  O4S SGN d5702      63.251  41.236  33.624  0.00  0.00    -0.572 OA
ATOM     29  O5S SGN d5702      65.163  39.994  34.119  0.00  0.00    -0.572 OA
ATOM     30  O6S SGN d5702      64.703  42.049  35.261  0.00  0.00    -0.572 OA
ENDBRANCH  26  27
ENDBRANCH  25  26
ENDBRANCH   3  25
BRANCH   5  31
ATOM     31  O3  SGN d5702      61.751  39.590  41.259  0.00  0.00    -0.391 OA
ATOM     32  H   SGN d5702      62.353  40.351  41.275  0.00  0.00     0.210 HD
ENDBRANCH   5  31
BRANCH   2  33
ATOM     33  N   SGN d5702      61.629  36.793  41.183  0.00  0.00    -0.189 NA
ATOM     34  H   SGN d5702      61.386  35.920  40.715  0.00  0.00     0.143 HD
BRANCH  33  35
ATOM     35  S1  SGN d5702      62.377  36.418  42.738  0.00  0.00     0.183 S 
ATOM     36  O1S SGN d5702      62.544  37.653  43.477  0.00  0.00    -0.582 OA
ATOM     37  O2S SGN d5702      63.677  35.878  42.504  0.00  0.00    -0.582 OA
ATOM     38  O3S SGN d5702      61.479  35.473  43.374  0.00  0.00    -0.582 OA
ENDBRANCH  33  35
ENDBRANCH   2  33
BRANCH   6  39
ATOM     39  O1  SGN d5702      61.454  36.451  38.430  0.00  0.00    -0.369 OA
ATOM     40  H   SGN d5702      60.726  36.618  39.048  0.00  0.00     0.212 HD
ENDBRANCH   6  39
TORSDOF 14
ENDMDL
MODEL 9
REMARK VINA RESULT:      -4.2      4.180      7.511
REMARK  14 active torsions:
REMARK  status: ('A' for Active; 'I' for Inactive)
REMARK    1  A    between atoms: C5_1  and  C6_23 
REMARK    2  A    between atoms: S2_5  and  O6_7 
REMARK    3  A    between atoms: O1_6  and  C1_35 
REMARK    4  A    between atoms: O6_7  and  C6_21 
REMARK    5  A    between atoms: O2_9  and  C2_28 
REMARK    6  A    between atoms: O2_9  and  S_13 
REMARK    7  A    between atoms: C3_10  and  O3_20 
REMARK    8  A    between atoms: C1_11  and  O4_12 
REMARK    9  A    between atoms: O4_12  and  C4_19 
REMARK   10  A    between atoms: C2_15  and  N_29 
REMARK   11  A    between atoms: C5_17  and  C6_21 
REMARK   12  A    between atoms: C6_23  and  O61_33 
REMARK   13  A    between atoms: O3_24  and  C3_26 
REMARK   14  A    between atoms: S1_27  and  N_29 
ROOT
ATOM      1  O5  SGN d5702      64.648  45.730  39.736  0.00  0.00    -0.350 OA
ATOM      2  C2  SGN d5702      62.852  45.364  41.286  0.00  0.00     0.160 C 
ATOM      3  C5  SGN d5702      64.805  44.356  39.476  0.00  0.00     0.181 C 
ATOM      4  C4  SGN d5702      63.454  43.645  39.687  0.00  0.00     0.186 C 
ATOM      5  C3  SGN d5702      63.028  43.874  41.162  0.00  0.00     0.173 C 
ATOM      6  C1  SGN d5702      64.170  46.074  41.039  0.00  0.00     0.278 C 
ENDROOT
BRANCH   4   7
ATOM      7  O4  SGN d5702      63.683  42.240  39.388  0.00  0.00    -0.348 OA
BRANCH   7   8
ATOM      8  C1  IDU d1623      62.729  41.324  38.892  0.00  0.00     0.294 C 
ATOM      9  O5  IDU d1623      62.221  41.671  37.563  0.00  0.00    -0.343 OA
ATOM     10  C5  IDU d1623      61.136  40.795  37.093  0.00  0.00     0.224 C 
ATOM     11  C4  IDU d1623      61.667  39.355  36.999  0.00  0.00     0.077 C 
ATOM     12  C3  IDU d1623      62.204  38.913  38.369  0.00  0.00     0.156 C 
ATOM     13  C2  IDU d1623      63.305  39.903  38.782  0.00  0.00     0.228 C 
BRANCH  10  14
ATOM     14  C6  IDU d1623      60.649  41.207  35.730  0.00  0.00     0.170 C 
ATOM     15  O62 IDU d1623      60.622  40.349  34.834  0.00  0.00    -0.648 OA
BRANCH  14  16
ATOM     16  O61 IDU d1623      60.300  42.395  35.573  0.00  0.00    -0.774 OA
ENDBRANCH  14  16
ENDBRANCH  10  14
BRANCH  12  18
ATOM     18  O3  IDU d1623      61.165  38.932  39.308  0.00  0.00    -0.393 OA
ATOM     19  H   IDU d1623      60.525  38.235  39.094  0.00  0.00     0.210 HD
ENDBRANCH  12  18
BRANCH  13  20
ATOM     20  O2  IDU d1623      64.315  39.928  37.801  0.00  0.00    -0.244 OA
BRANCH  20  21
ATOM     21  S   IDU d1623      65.517  38.680  37.832  0.00  0.00     0.252 S 
ATOM     22  O3S IDU d1623      65.119  37.583  37.032  0.00  0.00    -0.572 OA
ATOM     23  O1S IDU d1623      65.724  38.342  39.208  0.00  0.00    -0.572 OA
ATOM     24  O2S IDU d1623      66.770  39.155  37.267  0.00  0.00    -0.572 OA
ENDBRANCH  20  21
ENDBRANCH  13  20
ENDBRANCH   7   8
ENDBRANCH   4   7
BRANCH   3  25
ATOM     25  C6  SGN d5702      65.298  44.227  38.068  0.00  0.00     0.227 C 
BRANCH  25  26
ATOM     26  O6  SGN d5702      64.658  45.301  37.396  0.00  0.00    -0.254 OA
BRANCH  26  27
ATOM     27  S2  SGN d5702      63.578  44.937  36.093  0.00  0.00     0.251 S 
ATOM     28  O4S SGN d5702      63.748  45.847  35.007  0.00  0.00    -0.572 OA
ATOM     29  O5S SGN d5702      62.231  45.031  36.580  0.00  0.00    -0.572 OA
ATOM     30  O6S SGN d5702      63.934  43.615  35.666  0.00  0.00    -0.572 OA
ENDBRANCH  26  27
ENDBRANCH  25  26
ENDBRANCH   3  25
BRANCH   5  31
ATOM     31  O3  SGN d5702      61.789  43.253  41.404  0.00  0.00    -0.391 OA
ATOM     32  H   SGN d5702      61.846  42.721  42.213  0.00  0.00     0.210 HD
ENDBRANCH   5  31
BRANCH   2  33
ATOM     33  N   SGN d5702      62.422  45.704  42.603  0.00  0.00    -0.189 NA
ATOM     34  H   SGN d5702      63.048  46.416  42.981  0.00  0.00     0.143 HD
BRANCH  33  35
ATOM     35  S1  SGN d5702      60.771  46.331  42.618  0.00  0.00     0.183 S 
ATOM     36  O1S SGN d5702      60.579  47.090  43.838  0.00  0.00    -0.582 OA
ATOM     37  O2S SGN d5702      59.862  45.231  42.650  0.00  0.00    -0.582 OA
ATOM     38  O3S SGN d5702      60.654  47.125  41.410  0.00  0.00    -0.582 OA
ENDBRANCH  33  35
ENDBRANCH   2  33
BRANCH   6  39
ATOM     39  O1  SGN d5702      65.139  45.774  42.016  0.00  0.00    -0.369 OA
ATOM     40  H   SGN d5702      65.529  44.906  41.827  0.00  0.00     0.212 HD
ENDBRANCH   6  39
TORSDOF 14
ENDMDL
MODEL 10
REMARK VINA RESULT:      -4.1      3.896      8.595
REMARK  14 active torsions:
REMARK  status: ('A' for Active; 'I' for Inactive)
REMARK    1  A    between atoms: C5_1  and  C6_23 
REMARK    2  A    between atoms: S2_5  and  O6_7 
REMARK    3  A    between atoms: O1_6  and  C1_35 
REMARK    4  A    between atoms: O6_7  and  C6_21 
REMARK    5  A    between atoms: O2_9  and  C2_28 
REMARK    6  A    between atoms: O2_9  and  S_13 
REMARK    7  A    between atoms: C3_10  and  O3_20 
REMARK    8  A    between atoms: C1_11  and  O4_12 
REMARK    9  A    between atoms: O4_12  and  C4_19 
REMARK   10  A    between atoms: C2_15  and  N_29 
REMARK   11  A    between atoms: C5_17  and  C6_21 
REMARK   12  A    between atoms: C6_23  and  O61_33 
REMARK   13  A    between atoms: O3_24  and  C3_26 
REMARK   14  A    between atoms: S1_27  and  N_29 
ROOT
ATOM      1  O5  SGN d5702      64.265  40.285  38.844  0.00  0.00    -0.350 OA
ATOM      2  C2  SGN d5702      62.210  40.415  37.610  0.00  0.00     0.160 C 
ATOM      3  C5  SGN d5702      63.967  39.010  39.357  0.00  0.00     0.181 C 
ATOM      4  C4  SGN d5702      63.049  38.269  38.364  0.00  0.00     0.186 C 
ATOM      5  C3  SGN d5702      61.754  39.109  38.205  0.00  0.00     0.173 C 
ATOM      6  C1  SGN d5702      63.146  41.131  38.566  0.00  0.00     0.278 C 
ENDROOT
BRANCH   4   7
ATOM      7  O4  SGN d5702      62.794  36.960  38.945  0.00  0.00    -0.348 OA
BRANCH   7   8
ATOM      8  C1  IDU d1623      62.771  35.728  38.255  0.00  0.00     0.294 C 
ATOM      9  O5  IDU d1623      64.075  35.333  37.720  0.00  0.00    -0.343 OA
ATOM     10  C5  IDU d1623      64.035  34.117  36.892  0.00  0.00     0.224 C 
ATOM     11  C4  IDU d1623      63.538  32.945  37.755  0.00  0.00     0.077 C 
ATOM     12  C3  IDU d1623      62.158  33.284  38.339  0.00  0.00     0.156 C 
ATOM     13  C2  IDU d1623      62.300  34.576  39.158  0.00  0.00     0.228 C 
BRANCH  10  14
ATOM     14  C6  IDU d1623      65.400  33.767  36.364  0.00  0.00     0.170 C 
ATOM     15  O62 IDU d1623      65.549  33.685  35.135  0.00  0.00    -0.648 OA
BRANCH  14  16
ATOM     16  O61 IDU d1623      66.312  33.576  37.194  0.00  0.00    -0.774 OA
ENDBRANCH  14  16
ENDBRANCH  10  14
BRANCH  12  18
ATOM     18  O3  IDU d1623      61.242  33.473  37.297  0.00  0.00    -0.393 OA
ATOM     19  H   IDU d1623      60.483  32.882  37.422  0.00  0.00     0.210 HD
ENDBRANCH  12  18
BRANCH  13  20
ATOM     20  O2  IDU d1623      63.270  34.400  40.162  0.00  0.00    -0.244 OA
BRANCH  20  21
ATOM     21  S   IDU d1623      62.734  34.282  41.805  0.00  0.00     0.252 S 
ATOM     22  O3S IDU d1623      63.834  34.113  42.679  0.00  0.00    -0.572 OA
ATOM     23  O1S IDU d1623      61.791  33.205  41.855  0.00  0.00    -0.572 OA
ATOM     24  O2S IDU d1623      62.074  35.510  42.223  0.00  0.00    -0.572 OA
ENDBRANCH  20  21
ENDBRANCH  13  20
ENDBRANCH   7   8
ENDBRANCH   4   7
BRANCH   3  25
ATOM     25  C6  SGN d5702      65.269  38.300  39.561  0.00  0.00     0.227 C 
BRANCH  25  26
ATOM     26  O6  SGN d5702      66.131  38.917  38.617  0.00  0.00    -0.254 OA
BRANCH  26  27
ATOM     27  S2  SGN d5702      66.790  37.950  37.341  0.00  0.00     0.251 S 
ATOM     28  O4S SGN d5702      65.835  37.740  36.302  0.00  0.00    -0.572 OA
ATOM     29  O5S SGN d5702      67.180  36.681  37.888  0.00  0.00    -0.572 OA
ATOM     30  O6S SGN d5702      67.894  38.707  36.827  0.00  0.00    -0.572 OA
ENDBRANCH  26  27
ENDBRANCH  25  26
ENDBRANCH   3  25
BRANCH   5  31
ATOM     31  O3  SGN d5702      60.885  38.480  37.295  0.00  0.00    -0.391 OA
ATOM     32  H   SGN d5702      61.354  38.312  36.463  0.00  0.00     0.210 HD
ENDBRANCH   5  31
BRANCH   2  33
ATOM     33  N   SGN d5702      61.093  41.271  37.381  0.00  0.00    -0.189 NA
ATOM     34  H   SGN d5702      61.240  42.146  37.886  0.00  0.00     0.143 HD
BRANCH  33  35
ATOM     35  S1  SGN d5702      60.878  41.632  35.666  0.00  0.00     0.183 S 
ATOM     36  O1S SGN d5702      60.502  40.409  34.984  0.00  0.00    -0.582 OA
ATOM     37  O2S SGN d5702      62.127  42.058  35.125  0.00  0.00    -0.582 OA
ATOM     38  O3S SGN d5702      59.860  42.664  35.619  0.00  0.00    -0.582 OA
ENDBRANCH  33  35
ENDBRANCH   2  33
BRANCH   6  39
ATOM     39  O1  SGN d5702      62.510  41.517  39.761  0.00  0.00    -0.369 OA
ATOM     40  H   SGN d5702      61.795  40.893  39.962  0.00  0.00     0.212 HD
ENDBRANCH   6  39
TORSDOF 14
ENDMDL
MODEL 11
REMARK VINA RESULT:      -4.1      3.713      8.077
REMARK  14 active torsions:
REMARK  status: ('A' for Active; 'I' for Inactive)
REMARK    1  A    between atoms: C5_1  and  C6_23 
REMARK    2  A    between atoms: S2_5  and  O6_7 
REMARK    3  A    between atoms: O1_6  and  C1_35 
REMARK    4  A    between atoms: O6_7  and  C6_21 
REMARK    5  A    between atoms: O2_9  and  C2_28 
REMARK    6  A    between atoms: O2_9  and  S_13 
REMARK    7  A    between atoms: C3_10  and  O3_20 
REMARK    8  A    between atoms: C1_11  and  O4_12 
REMARK    9  A    between atoms: O4_12  and  C4_19 
REMARK   10  A    between atoms: C2_15  and  N_29 
REMARK   11  A    between atoms: C5_17  and  C6_21 
REMARK   12  A    between atoms: C6_23  and  O61_33 
REMARK   13  A    between atoms: O3_24  and  C3_26 
REMARK   14  A    between atoms: S1_27  and  N_29 
ROOT
ATOM      1  O5  SGN d5702      63.632  41.891  33.387  0.00  0.00    -0.350 OA
ATOM      2  C2  SGN d5702      64.603  43.932  32.576  0.00  0.00     0.160 C 
ATOM      3  C5  SGN d5702      64.117  42.089  34.693  0.00  0.00     0.181 C 
ATOM      4  C4  SGN d5702      64.261  43.602  34.953  0.00  0.00     0.186 C 
ATOM      5  C3  SGN d5702      65.263  44.165  33.910  0.00  0.00     0.173 C 
ATOM      6  C1  SGN d5702      64.422  42.445  32.330  0.00  0.00     0.278 C 
ENDROOT
BRANCH   4   7
ATOM      7  O4  SGN d5702      64.748  43.734  36.317  0.00  0.00    -0.348 OA
BRANCH   7   8
ATOM      8  C1  IDU d1623      64.275  44.642  37.291  0.00  0.00     0.294 C 
ATOM      9  O5  IDU d1623      62.825  44.582  37.490  0.00  0.00    -0.343 OA
ATOM     10  C5  IDU d1623      62.307  45.610  38.407  0.00  0.00     0.224 C 
ATOM     11  C4  IDU d1623      62.951  45.412  39.789  0.00  0.00     0.077 C 
ATOM     12  C3  IDU d1623      64.481  45.480  39.660  0.00  0.00     0.156 C 
ATOM     13  C2  IDU d1623      64.916  44.393  38.665  0.00  0.00     0.228 C 
BRANCH  10  14
ATOM     14  C6  IDU d1623      60.814  45.504  38.564  0.00  0.00     0.170 C 
ATOM     15  O62 IDU d1623      60.299  45.972  39.591  0.00  0.00    -0.648 OA
BRANCH  14  16
ATOM     16  O61 IDU d1623      60.173  44.949  37.649  0.00  0.00    -0.774 OA
ENDBRANCH  14  16
ENDBRANCH  10  14
BRANCH  12  18
ATOM     18  O3  IDU d1623      64.855  46.743  39.185  0.00  0.00    -0.393 OA
ATOM     19  H   IDU d1623      64.081  47.328  39.181  0.00  0.00     0.210 HD
ENDBRANCH  12  18
BRANCH  13  20
ATOM     20  O2  IDU d1623      64.480  43.132  39.116  0.00  0.00    -0.244 OA
BRANCH  20  21
ATOM     21  S   IDU d1623      65.658  41.875  39.294  0.00  0.00     0.252 S 
ATOM     22  O3S IDU d1623      66.967  42.396  39.170  0.00  0.00    -0.572 OA
ATOM     23  O1S IDU d1623      65.344  40.873  38.320  0.00  0.00    -0.572 OA
ATOM     24  O2S IDU d1623      65.586  41.284  40.622  0.00  0.00    -0.572 OA
ENDBRANCH  20  21
ENDBRANCH  13  20
ENDBRANCH   7   8
ENDBRANCH   4   7
BRANCH   3  25
ATOM     25  C6  SGN d5702      63.142  41.444  35.628  0.00  0.00     0.227 C 
BRANCH  25  26
ATOM     26  O6  SGN d5702      62.182  40.867  34.756  0.00  0.00    -0.254 OA
BRANCH  26  27
ATOM     27  S2  SGN d5702      60.601  40.526  35.372  0.00  0.00     0.251 S 
ATOM     28  O4S SGN d5702      59.874  39.669  34.492  0.00  0.00    -0.572 OA
ATOM     29  O5S SGN d5702      59.892  41.766  35.515  0.00  0.00    -0.572 OA
ATOM     30  O6S SGN d5702      60.819  39.852  36.618  0.00  0.00    -0.572 OA
ENDBRANCH  26  27
ENDBRANCH  25  26
ENDBRANCH   3  25
BRANCH   5  31
ATOM     31  O3  SGN d5702      65.420  45.550  34.098  0.00  0.00    -0.391 OA
ATOM     32  H   SGN d5702      65.157  46.018  33.289  0.00  0.00     0.210 HD
ENDBRANCH   5  31
BRANCH   2  33
ATOM     33  N   SGN d5702      65.419  44.443  31.525  0.00  0.00    -0.189 NA
ATOM     34  H   SGN d5702      65.570  43.706  30.836  0.00  0.00     0.143 HD
BRANCH  33  35
ATOM     35  S1  SGN d5702      64.673  45.829  30.723  0.00  0.00     0.183 S 
ATOM     36  O1S SGN d5702      64.069  46.673  31.735  0.00  0.00    -0.582 OA
ATOM     37  O2S SGN d5702      63.626  45.359  29.875  0.00  0.00    -0.582 OA
ATOM     38  O3S SGN d5702      65.748  46.470  29.992  0.00  0.00    -0.582 OA
ENDBRANCH  33  35
ENDBRANCH   2  33
BRANCH   6  39
ATOM     39  O1  SGN d5702      65.646  41.760  32.218  0.00  0.00    -0.369 OA
ATOM     40  H   SGN d5702      66.348  42.390  31.990  0.00  0.00     0.212 HD
ENDBRANCH   6  39
TORSDOF 14
ENDMDL
MODEL 12
REMARK VINA RESULT:      -4.1      3.657      8.581
REMARK  14 active torsions:
REMARK  status: ('A' for Active; 'I' for Inactive)
REMARK    1  A    between atoms: C5_1  and  C6_23 
REMARK    2  A    between atoms: S2_5  and  O6_7 
REMARK    3  A    between atoms: O1_6  and  C1_35 
REMARK    4  A    between atoms: O6_7  and  C6_21 
REMARK    5  A    between atoms: O2_9  and  C2_28 
REMARK    6  A    between atoms: O2_9  and  S_13 
REMARK    7  A    between atoms: C3_10  and  O3_20 
REMARK    8  A    between atoms: C1_11  and  O4_12 
REMARK    9  A    between atoms: O4_12  and  C4_19 
REMARK   10  A    between atoms: C2_15  and  N_29 
REMARK   11  A    between atoms: C5_17  and  C6_21 
REMARK   12  A    between atoms: C6_23  and  O61_33 
REMARK   13  A    between atoms: O3_24  and  C3_26 
REMARK   14  A    between atoms: S1_27  and  N_29 
ROOT
ATOM      1  O5  SGN d5702      62.110  43.996  34.429  0.00  0.00    -0.350 OA
ATOM      2  C2  SGN d5702      64.364  44.818  34.506  0.00  0.00     0.160 C 
ATOM      3  C5  SGN d5702      62.261  43.246  35.609  0.00  0.00     0.181 C 
ATOM      4  C4  SGN d5702      63.323  43.920  36.502  0.00  0.00     0.186 C 
ATOM      5  C3  SGN d5702      64.654  43.954  35.705  0.00  0.00     0.173 C 
ATOM      6  C1  SGN d5702      63.291  44.180  33.643  0.00  0.00     0.278 C 
ENDROOT
BRANCH   4   7
ATOM      7  O4  SGN d5702      63.417  43.107  37.705  0.00  0.00    -0.348 OA
BRANCH   7   8
ATOM      8  C1  IDU d1623      63.385  43.576  39.037  0.00  0.00     0.294 C 
ATOM      9  O5  IDU d1623      62.100  44.168  39.416  0.00  0.00    -0.343 OA
ATOM     10  C5  IDU d1623      62.097  44.774  40.758  0.00  0.00     0.224 C 
ATOM     11  C4  IDU d1623      62.404  43.682  41.796  0.00  0.00     0.077 C 
ATOM     12  C3  IDU d1623      63.753  43.023  41.469  0.00  0.00     0.156 C 
ATOM     13  C2  IDU d1623      63.663  42.450  40.046  0.00  0.00     0.228 C 
BRANCH  10  14
ATOM     14  C6  IDU d1623      60.757  45.373  41.087  0.00  0.00     0.170 C 
ATOM     15  O62 IDU d1623      60.163  46.003  40.198  0.00  0.00    -0.648 OA
BRANCH  14  16
ATOM     16  O61 IDU d1623      60.314  45.205  42.241  0.00  0.00    -0.774 OA
ENDBRANCH  14  16
ENDBRANCH  10  14
BRANCH  12  18
ATOM     18  O3  IDU d1623      64.771  43.983  41.537  0.00  0.00    -0.393 OA
ATOM     19  H   IDU d1623      65.489  43.736  40.935  0.00  0.00     0.210 HD
ENDBRANCH  12  18
BRANCH  13  20
ATOM     20  O2  IDU d1623      62.596  41.535  39.967  0.00  0.00    -0.244 OA
BRANCH  20  21
ATOM     21  S   IDU d1623      62.864  39.917  40.526  0.00  0.00     0.252 S 
ATOM     22  O3S IDU d1623      64.245  39.609  40.520  0.00  0.00    -0.572 OA
ATOM     23  O1S IDU d1623      62.080  39.058  39.691  0.00  0.00    -0.572 OA
ATOM     24  O2S IDU d1623      62.426  39.768  41.905  0.00  0.00    -0.572 OA
ENDBRANCH  20  21
ENDBRANCH  13  20
ENDBRANCH   7   8
ENDBRANCH   4   7
BRANCH   3  25
ATOM     25  C6  SGN d5702      60.920  43.188  36.271  0.00  0.00     0.227 C 
BRANCH  25  26
ATOM     26  O6  SGN d5702      60.232  42.189  35.533  0.00  0.00    -0.254 OA
BRANCH  26  27
ATOM     27  S2  SGN d5702      60.943  40.616  35.406  0.00  0.00     0.251 S 
ATOM     28  O4S SGN d5702      61.188  40.051  36.694  0.00  0.00    -0.572 OA
ATOM     29  O5S SGN d5702      62.186  40.734  34.699  0.00  0.00    -0.572 OA
ATOM     30  O6S SGN d5702      59.972  39.819  34.714  0.00  0.00    -0.572 OA
ENDBRANCH  26  27
ENDBRANCH  25  26
ENDBRANCH   3  25
BRANCH   5  31
ATOM     31  O3  SGN d5702      65.656  44.574  36.474  0.00  0.00    -0.391 OA
ATOM     32  H   SGN d5702      65.264  45.287  37.002  0.00  0.00     0.210 HD
ENDBRANCH   5  31
BRANCH   2  33
ATOM     33  N   SGN d5702      65.534  44.957  33.703  0.00  0.00    -0.189 NA
ATOM     34  H   SGN d5702      65.749  44.056  33.274  0.00  0.00     0.143 HD
BRANCH  33  35
ATOM     35  S1  SGN d5702      65.319  46.159  32.426  0.00  0.00     0.183 S 
ATOM     36  O1S SGN d5702      64.842  45.483  31.235  0.00  0.00    -0.582 OA
ATOM     37  O2S SGN d5702      66.588  46.731  32.115  0.00  0.00    -0.582 OA
ATOM     38  O3S SGN d5702      64.381  47.124  32.966  0.00  0.00    -0.582 OA
ENDBRANCH  33  35
ENDBRANCH   2  33
BRANCH   6  39
ATOM     39  O1  SGN d5702      63.705  42.959  33.078  0.00  0.00    -0.369 OA
ATOM     40  H   SGN d5702      63.901  43.089  32.137  0.00  0.00     0.212 HD
ENDBRANCH   6  39
TORSDOF 14
ENDMDL
MODEL 13
REMARK VINA RESULT:      -4.0      2.422      3.359
REMARK  14 active torsions:
REMARK  status: ('A' for Active; 'I' for Inactive)
REMARK    1  A    between atoms: C5_1  and  C6_23 
REMARK    2  A    between atoms: S2_5  and  O6_7 
REMARK    3  A    between atoms: O1_6  and  C1_35 
REMARK    4  A    between atoms: O6_7  and  C6_21 
REMARK    5  A    between atoms: O2_9  and  C2_28 
REMARK    6  A    between atoms: O2_9  and  S_13 
REMARK    7  A    between atoms: C3_10  and  O3_20 
REMARK    8  A    between atoms: C1_11  and  O4_12 
REMARK    9  A    between atoms: O4_12  and  C4_19 
REMARK   10  A    between atoms: C2_15  and  N_29 
REMARK   11  A    between atoms: C5_17  and  C6_21 
REMARK   12  A    between atoms: C6_23  and  O61_33 
REMARK   13  A    between atoms: O3_24  and  C3_26 
REMARK   14  A    between atoms: S1_27  and  N_29 
ROOT
ATOM      1  O5  SGN d5702      62.126  38.817  38.630  0.00  0.00    -0.350 OA
ATOM      2  C2  SGN d5702      63.317  36.770  38.242  0.00  0.00     0.160 C 
ATOM      3  C5  SGN d5702      63.201  39.615  38.199  0.00  0.00     0.181 C 
ATOM      4  C4  SGN d5702      64.036  38.823  37.173  0.00  0.00     0.186 C 
ATOM      5  C3  SGN d5702      64.557  37.543  37.879  0.00  0.00     0.173 C 
ATOM      6  C1  SGN d5702      62.469  37.561  39.221  0.00  0.00     0.278 C 
ENDROOT
BRANCH   4   7
ATOM      7  O4  SGN d5702      65.115  39.705  36.759  0.00  0.00    -0.348 OA
BRANCH   7   8
ATOM      8  C1  IDU d1623      65.719  39.748  35.482  0.00  0.00     0.294 C 
ATOM      9  O5  IDU d1623      64.812  40.194  34.422  0.00  0.00    -0.343 OA
ATOM     10  C5  IDU d1623      65.393  40.119  33.072  0.00  0.00     0.224 C 
ATOM     11  C4  IDU d1623      66.626  41.035  33.011  0.00  0.00     0.077 C 
ATOM     12  C3  IDU d1623      67.635  40.615  34.092  0.00  0.00     0.156 C 
ATOM     13  C2  IDU d1623      66.927  40.698  35.452  0.00  0.00     0.228 C 
BRANCH  10  14
ATOM     14  C6  IDU d1623      64.414  40.579  32.026  0.00  0.00     0.170 C 
ATOM     15  O62 IDU d1623      64.039  41.761  32.054  0.00  0.00    -0.648 OA
BRANCH  14  16
ATOM     16  O61 IDU d1623      64.028  39.742  31.184  0.00  0.00    -0.774 OA
ENDBRANCH  14  16
ENDBRANCH  10  14
BRANCH  12  18
ATOM     18  O3  IDU d1623      68.059  39.302  33.850  0.00  0.00    -0.393 OA
ATOM     19  H   IDU d1623      67.307  38.697  33.945  0.00  0.00     0.210 HD
ENDBRANCH  12  18
BRANCH  13  20
ATOM     20  O2  IDU d1623      66.445  42.005  35.660  0.00  0.00    -0.244 OA
BRANCH  20  21
ATOM     21  S   IDU d1623      66.963  42.851  37.080  0.00  0.00     0.252 S 
ATOM     22  O3S IDU d1623      67.901  43.857  36.749  0.00  0.00    -0.572 OA
ATOM     23  O1S IDU d1623      67.473  41.865  37.985  0.00  0.00    -0.572 OA
ATOM     24  O2S IDU d1623      65.844  43.537  37.709  0.00  0.00    -0.572 OA
ENDBRANCH  20  21
ENDBRANCH  13  20
ENDBRANCH   7   8
ENDBRANCH   4   7
BRANCH   3  25
ATOM     25  C6  SGN d5702      62.619  40.862  37.611  0.00  0.00     0.227 C 
BRANCH  25  26
ATOM     26  O6  SGN d5702      61.390  40.420  37.053  0.00  0.00    -0.254 OA
BRANCH  26  27
ATOM     27  S2  SGN d5702      60.906  41.046  35.514  0.00  0.00     0.251 S 
ATOM     28  O4S SGN d5702      60.199  40.067  34.754  0.00  0.00    -0.572 OA
ATOM     29  O5S SGN d5702      62.082  41.444  34.794  0.00  0.00    -0.572 OA
ATOM     30  O6S SGN d5702      60.028  42.141  35.812  0.00  0.00    -0.572 OA
ENDBRANCH  26  27
ENDBRANCH  25  26
ENDBRANCH   3  25
BRANCH   5  31
ATOM     31  O3  SGN d5702      65.317  36.775  36.978  0.00  0.00    -0.391 OA
ATOM     32  H   SGN d5702      65.515  37.304  36.189  0.00  0.00     0.210 HD
ENDBRANCH   5  31
BRANCH   2  33
ATOM     33  N   SGN d5702      63.667  35.540  38.874  0.00  0.00    -0.189 NA
ATOM     34  H   SGN d5702      63.195  35.488  39.777  0.00  0.00     0.143 HD
BRANCH  33  35
ATOM     35  S1  SGN d5702      63.198  34.141  37.903  0.00  0.00     0.183 S 
ATOM     36  O1S SGN d5702      61.796  34.271  37.557  0.00  0.00    -0.582 OA
ATOM     37  O2S SGN d5702      63.337  32.964  38.697  0.00  0.00    -0.582 OA
ATOM     38  O3S SGN d5702      64.088  34.158  36.758  0.00  0.00    -0.582 OA
ENDBRANCH  33  35
ENDBRANCH   2  33
BRANCH   6  39
ATOM     39  O1  SGN d5702      63.111  37.756  40.459  0.00  0.00    -0.369 OA
ATOM     40  H   SGN d5702      63.997  38.122  40.309  0.00  0.00     0.212 HD
ENDBRANCH   6  39
TORSDOF 14
ENDMDL
MODEL 14
REMARK VINA RESULT:      -4.0      3.301      6.189
REMARK  14 active torsions:
REMARK  status: ('A' for Active; 'I' for Inactive)
REMARK    1  A    between atoms: C5_1  and  C6_23 
REMARK    2  A    between atoms: S2_5  and  O6_7 
REMARK    3  A    between atoms: O1_6  and  C1_35 
REMARK    4  A    between atoms: O6_7  and  C6_21 
REMARK    5  A    between atoms: O2_9  and  C2_28 
REMARK    6  A    between atoms: O2_9  and  S_13 
REMARK    7  A    between atoms: C3_10  and  O3_20 
REMARK    8  A    between atoms: C1_11  and  O4_12 
REMARK    9  A    between atoms: O4_12  and  C4_19 
REMARK   10  A    between atoms: C2_15  and  N_29 
REMARK   11  A    between atoms: C5_17  and  C6_21 
REMARK   12  A    between atoms: C6_23  and  O61_33 
REMARK   13  A    between atoms: O3_24  and  C3_26 
REMARK   14  A    between atoms: S1_27  and  N_29 
ROOT
ATOM      1  O5  SGN d5702      65.044  42.322  37.058  0.00  0.00    -0.350 OA
ATOM      2  C2  SGN d5702      62.863  43.325  37.022  0.00  0.00     0.160 C 
ATOM      3  C5  SGN d5702      64.963  41.912  35.715  0.00  0.00     0.181 C 
ATOM      4  C4  SGN d5702      64.037  42.878  34.948  0.00  0.00     0.186 C 
ATOM      5  C3  SGN d5702      62.639  42.821  35.620  0.00  0.00     0.173 C 
ATOM      6  C1  SGN d5702      63.806  42.401  37.770  0.00  0.00     0.278 C 
ENDROOT
BRANCH   4   7
ATOM      7  O4  SGN d5702      64.010  42.409  33.572  0.00  0.00    -0.348 OA
BRANCH   7   8
ATOM      8  C1  IDU d1623      64.076  43.212  32.412  0.00  0.00     0.294 C 
ATOM      9  O5  IDU d1623      65.303  44.005  32.319  0.00  0.00    -0.343 OA
ATOM     10  C5  IDU d1623      65.324  44.939  31.182  0.00  0.00     0.224 C 
ATOM     11  C4  IDU d1623      65.218  44.134  29.876  0.00  0.00     0.077 C 
ATOM     12  C3  IDU d1623      63.937  43.285  29.895  0.00  0.00     0.156 C 
ATOM     13  C2  IDU d1623      64.000  42.370  31.128  0.00  0.00     0.228 C 
BRANCH  10  14
ATOM     14  C6  IDU d1623      66.603  45.731  31.144  0.00  0.00     0.170 C 
ATOM     15  O62 IDU d1623      66.607  46.861  31.657  0.00  0.00    -0.648 OA
BRANCH  14  16
ATOM     16  O61 IDU d1623      67.594  45.207  30.596  0.00  0.00    -0.774 OA
ENDBRANCH  14  16
ENDBRANCH  10  14
BRANCH  12  18
ATOM     18  O3  IDU d1623      62.821  44.126  29.977  0.00  0.00    -0.393 OA
ATOM     19  H   IDU d1623      62.323  43.925  30.785  0.00  0.00     0.210 HD
ENDBRANCH  12  18
BRANCH  13  20
ATOM     20  O2  IDU d1623      65.160  41.574  31.073  0.00  0.00    -0.244 OA
BRANCH  20  21
ATOM     21  S   IDU d1623      64.972  39.852  31.083  0.00  0.00     0.252 S 
ATOM     22  O3S IDU d1623      65.975  39.235  30.299  0.00  0.00    -0.572 OA
ATOM     23  O1S IDU d1623      63.641  39.581  30.629  0.00  0.00    -0.572 OA
ATOM     24  O2S IDU d1623      65.132  39.322  32.428  0.00  0.00    -0.572 OA
ENDBRANCH  20  21
ENDBRANCH  13  20
ENDBRANCH   7   8
ENDBRANCH   4   7
BRANCH   3  25
ATOM     25  C6  SGN d5702      66.356  41.912  35.168  0.00  0.00     0.227 C 
BRANCH  25  26
ATOM     26  O6  SGN d5702      66.981  42.984  35.858  0.00  0.00    -0.254 OA
BRANCH  26  27
ATOM     27  S2  SGN d5702      67.813  44.190  34.936  0.00  0.00     0.251 S 
ATOM     28  O4S SGN d5702      67.012  45.359  34.768  0.00  0.00    -0.572 OA
ATOM     29  O5S SGN d5702      68.124  43.642  33.647  0.00  0.00    -0.572 OA
ATOM     30  O6S SGN d5702      68.976  44.517  35.707  0.00  0.00    -0.572 OA
ENDBRANCH  26  27
ENDBRANCH  25  26
ENDBRANCH   3  25
BRANCH   5  31
ATOM     31  O3  SGN d5702      61.757  43.699  34.963  0.00  0.00    -0.391 OA
ATOM     32  H   SGN d5702      62.200  44.085  34.191  0.00  0.00     0.210 HD
ENDBRANCH   5  31
BRANCH   2  33
ATOM     33  N   SGN d5702      61.632  43.354  37.740  0.00  0.00    -0.189 NA
ATOM     34  H   SGN d5702      61.809  43.085  38.708  0.00  0.00     0.143 HD
BRANCH  33  35
ATOM     35  S1  SGN d5702      60.892  44.958  37.719  0.00  0.00     0.183 S 
ATOM     36  O1S SGN d5702      60.636  45.363  39.086  0.00  0.00    -0.582 OA
ATOM     37  O2S SGN d5702      59.634  44.874  37.052  0.00  0.00    -0.582 OA
ATOM     38  O3S SGN d5702      61.843  45.806  37.026  0.00  0.00    -0.582 OA
ENDBRANCH  33  35
ENDBRANCH   2  33
BRANCH   6  39
ATOM     39  O1  SGN d5702      63.265  41.115  37.963  0.00  0.00    -0.369 OA
ATOM     40  H   SGN d5702      63.928  40.546  38.385  0.00  0.00     0.212 HD
ENDBRANCH   6  39
TORSDOF 14
ENDMDL
MODEL 15
REMARK VINA RESULT:      -4.0      2.792      4.252
REMARK  14 active torsions:
REMARK  status: ('A' for Active; 'I' for Inactive)
REMARK    1  A    between atoms: C5_1  and  C6_23 
REMARK    2  A    between atoms: S2_5  and  O6_7 
REMARK    3  A    between atoms: O1_6  and  C1_35 
REMARK    4  A    between atoms: O6_7  and  C6_21 
REMARK    5  A    between atoms: O2_9  and  C2_28 
REMARK    6  A    between atoms: O2_9  and  S_13 
REMARK    7  A    between atoms: C3_10  and  O3_20 
REMARK    8  A    between atoms: C1_11  and  O4_12 
REMARK    9  A    between atoms: O4_12  and  C4_19 
REMARK   10  A    between atoms: C2_15  and  N_29 
REMARK   11  A    between atoms: C5_17  and  C6_21 
REMARK   12  A    between atoms: C6_23  and  O61_33 
REMARK   13  A    between atoms: O3_24  and  C3_26 
REMARK   14  A    between atoms: S1_27  and  N_29 
ROOT
ATOM      1  O5  SGN d5702      62.736  38.640  37.824  0.00  0.00    -0.350 OA
ATOM      2  C2  SGN d5702      64.887  37.895  37.062  0.00  0.00     0.160 C 
ATOM      3  C5  SGN d5702      63.175  39.964  38.010  0.00  0.00     0.181 C 
ATOM      4  C4  SGN d5702      64.330  40.254  37.032  0.00  0.00     0.186 C 
ATOM      5  C3  SGN d5702      65.474  39.253  37.345  0.00  0.00     0.173 C 
ATOM      6  C1  SGN d5702      63.723  37.619  37.995  0.00  0.00     0.278 C 
ENDROOT
BRANCH   4   7
ATOM      7  O4  SGN d5702      64.723  41.635  37.265  0.00  0.00    -0.348 OA
BRANCH   7   8
ATOM      8  C1  IDU d1623      65.171  42.554  36.290  0.00  0.00     0.294 C 
ATOM      9  O5  IDU d1623      64.202  42.788  35.218  0.00  0.00    -0.343 OA
ATOM     10  C5  IDU d1623      64.709  43.644  34.133  0.00  0.00     0.224 C 
ATOM     11  C4  IDU d1623      65.065  45.022  34.714  0.00  0.00     0.077 C 
ATOM     12  C3  IDU d1623      66.097  44.856  35.840  0.00  0.00     0.156 C 
ATOM     13  C2  IDU d1623      65.486  43.929  36.902  0.00  0.00     0.228 C 
BRANCH  10  14
ATOM     14  C6  IDU d1623      63.674  43.839  33.058  0.00  0.00     0.170 C 
ATOM     15  O62 IDU d1623      63.644  43.028  32.120  0.00  0.00    -0.648 OA
BRANCH  14  16
ATOM     16  O61 IDU d1623      62.899  44.811  33.169  0.00  0.00    -0.774 OA
ENDBRANCH  14  16
ENDBRANCH  10  14
BRANCH  12  18
ATOM     18  O3  IDU d1623      67.268  44.288  35.322  0.00  0.00    -0.393 OA
ATOM     19  H   IDU d1623      67.064  43.421  34.940  0.00  0.00     0.210 HD
ENDBRANCH  12  18
BRANCH  13  20
ATOM     20  O2  IDU d1623      64.276  44.473  37.371  0.00  0.00    -0.244 OA
BRANCH  20  21
ATOM     21  S   IDU d1623      64.162  44.890  39.049  0.00  0.00     0.252 S 
ATOM     22  O3S IDU d1623      65.308  45.609  39.464  0.00  0.00    -0.572 OA
ATOM     23  O1S IDU d1623      63.962  43.666  39.765  0.00  0.00    -0.572 OA
ATOM     24  O2S IDU d1623      63.028  45.770  39.287  0.00  0.00    -0.572 OA
ENDBRANCH  20  21
ENDBRANCH  13  20
ENDBRANCH   7   8
ENDBRANCH   4   7
BRANCH   3  25
ATOM     25  C6  SGN d5702      61.997  40.857  37.775  0.00  0.00     0.227 C 
BRANCH  25  26
ATOM     26  O6  SGN d5702      61.137  40.062  36.972  0.00  0.00    -0.254 OA
BRANCH  26  27
ATOM     27  S2  SGN d5702      60.747  40.612  35.378  0.00  0.00     0.251 S 
ATOM     28  O4S SGN d5702      60.051  41.858  35.414  0.00  0.00    -0.572 OA
ATOM     29  O5S SGN d5702      59.916  39.626  34.748  0.00  0.00    -0.572 OA
ATOM     30  O6S SGN d5702      62.009  40.791  34.722  0.00  0.00    -0.572 OA
ENDBRANCH  26  27
ENDBRANCH  25  26
ENDBRANCH   3  25
BRANCH   5  31
ATOM     31  O3  SGN d5702      66.552  39.468  36.467  0.00  0.00    -0.391 OA
ATOM     32  H   SGN d5702      66.972  40.318  36.673  0.00  0.00     0.210 HD
ENDBRANCH   5  31
BRANCH   2  33
ATOM     33  N   SGN d5702      65.863  36.879  37.282  0.00  0.00    -0.189 NA
ATOM     34  H   SGN d5702      65.534  36.261  38.023  0.00  0.00     0.143 HD
BRANCH  33  35
ATOM     35  S1  SGN d5702      66.157  35.920  35.828  0.00  0.00     0.183 S 
ATOM     36  O1S SGN d5702      64.998  35.083  35.588  0.00  0.00    -0.582 OA
ATOM     37  O2S SGN d5702      67.268  35.057  36.063  0.00  0.00    -0.582 OA
ATOM     38  O3S SGN d5702      66.407  36.888  34.777  0.00  0.00    -0.582 OA
ENDBRANCH  33  35
ENDBRANCH   2  33
BRANCH   6  39
ATOM     39  O1  SGN d5702      64.117  37.534  39.344  0.00  0.00    -0.369 OA
ATOM     40  H   SGN d5702      63.788  38.309  39.826  0.00  0.00     0.212 HD
ENDBRANCH   6  39
TORSDOF 14
ENDMDL
MODEL 16
REMARK VINA RESULT:      -4.0      3.935      8.781
REMARK  14 active torsions:
REMARK  status: ('A' for Active; 'I' for Inactive)
REMARK    1  A    between atoms: C5_1  and  C6_23 
REMARK    2  A    between atoms: S2_5  and  O6_7 
REMARK    3  A    between atoms: O1_6  and  C1_35 
REMARK    4  A    between atoms: O6_7  and  C6_21 
REMARK    5  A    between atoms: O2_9  and  C2_28 
REMARK    6  A    between atoms: O2_9  and  S_13 
REMARK    7  A    between atoms: C3_10  and  O3_20 
REMARK    8  A    between atoms: C1_11  and  O4_12 
REMARK    9  A    between atoms: O4_12  and  C4_19 
REMARK   10  A    between atoms: C2_15  and  N_29 
REMARK   11  A    between atoms: C5_17  and  C6_21 
REMARK   12  A    between atoms: C6_23  and  O61_33 
REMARK   13  A    between atoms: O3_24  and  C3_26 
REMARK   14  A    between atoms: S1_27  and  N_29 
ROOT
ATOM      1  O5  SGN d5702      64.267  40.361  38.847  0.00  0.00    -0.350 OA
ATOM      2  C2  SGN d5702      62.211  40.478  37.614  0.00  0.00     0.160 C 
ATOM      3  C5  SGN d5702      63.973  39.087  39.365  0.00  0.00     0.181 C 
ATOM      4  C4  SGN d5702      63.058  38.339  38.376  0.00  0.00     0.186 C 
ATOM      5  C3  SGN d5702      61.759  39.173  38.214  0.00  0.00     0.173 C 
ATOM      6  C1  SGN d5702      63.145  41.202  38.566  0.00  0.00     0.278 C 
ENDROOT
BRANCH   4   7
ATOM      7  O4  SGN d5702      62.807  37.032  38.962  0.00  0.00    -0.348 OA
BRANCH   7   8
ATOM      8  C1  IDU d1623      62.764  35.799  38.273  0.00  0.00     0.294 C 
ATOM      9  O5  IDU d1623      64.033  35.441  37.635  0.00  0.00    -0.343 OA
ATOM     10  C5  IDU d1623      63.962  34.225  36.810  0.00  0.00     0.224 C 
ATOM     11  C4  IDU d1623      63.569  33.040  37.706  0.00  0.00     0.077 C 
ATOM     12  C3  IDU d1623      62.231  33.338  38.400  0.00  0.00     0.156 C 
ATOM     13  C2  IDU d1623      62.401  34.634  39.208  0.00  0.00     0.228 C 
BRANCH  10  14
ATOM     14  C6  IDU d1623      65.290  33.915  36.174  0.00  0.00     0.170 C 
ATOM     15  O62 IDU d1623      66.107  33.243  36.822  0.00  0.00    -0.648 OA
BRANCH  14  16
ATOM     16  O61 IDU d1623      65.499  34.354  35.025  0.00  0.00    -0.774 OA
ENDBRANCH  14  16
ENDBRANCH  10  14
BRANCH  12  18
ATOM     18  O3  IDU d1623      61.230  33.500  37.434  0.00  0.00    -0.393 OA
ATOM     19  H   IDU d1623      60.660  32.715  37.424  0.00  0.00     0.210 HD
ENDBRANCH  12  18
BRANCH  13  20
ATOM     20  O2  IDU d1623      63.453  34.486  40.132  0.00  0.00    -0.244 OA
BRANCH  20  21
ATOM     21  S   IDU d1623      63.092  34.666  41.817  0.00  0.00     0.252 S 
ATOM     22  O3S IDU d1623      62.923  36.031  42.148  0.00  0.00    -0.572 OA
ATOM     23  O1S IDU d1623      64.154  34.028  42.536  0.00  0.00    -0.572 OA
ATOM     24  O2S IDU d1623      61.835  34.014  42.149  0.00  0.00    -0.572 OA
ENDBRANCH  20  21
ENDBRANCH  13  20
ENDBRANCH   7   8
ENDBRANCH   4   7
BRANCH   3  25
ATOM     25  C6  SGN d5702      65.277  38.382  39.572  0.00  0.00     0.227 C 
BRANCH  25  26
ATOM     26  O6  SGN d5702      65.298  38.133  40.970  0.00  0.00    -0.254 OA
BRANCH  26  27
ATOM     27  S2  SGN d5702      66.458  37.010  41.594  0.00  0.00     0.251 S 
ATOM     28  O4S SGN d5702      66.464  35.797  40.842  0.00  0.00    -0.572 OA
ATOM     29  O5S SGN d5702      66.118  36.716  42.958  0.00  0.00    -0.572 OA
ATOM     30  O6S SGN d5702      67.727  37.662  41.456  0.00  0.00    -0.572 OA
ENDBRANCH  26  27
ENDBRANCH  25  26
ENDBRANCH   3  25
BRANCH   5  31
ATOM     31  O3  SGN d5702      60.892  38.538  37.307  0.00  0.00    -0.391 OA
ATOM     32  H   SGN d5702      59.976  38.789  37.505  0.00  0.00     0.210 HD
ENDBRANCH   5  31
BRANCH   2  33
ATOM     33  N   SGN d5702      61.091  41.330  37.382  0.00  0.00    -0.189 NA
ATOM     34  H   SGN d5702      61.232  42.205  37.887  0.00  0.00     0.143 HD
BRANCH  33  35
ATOM     35  S1  SGN d5702      60.878  41.689  35.666  0.00  0.00     0.183 S 
ATOM     36  O1S SGN d5702      60.547  40.458  34.977  0.00  0.00    -0.582 OA
ATOM     37  O2S SGN d5702      62.117  42.158  35.137  0.00  0.00    -0.582 OA
ATOM     38  O3S SGN d5702      59.828  42.689  35.614  0.00  0.00    -0.582 OA
ENDBRANCH  33  35
ENDBRANCH   2  33
BRANCH   6  39
ATOM     39  O1  SGN d5702      62.508  41.590  39.760  0.00  0.00    -0.369 OA
ATOM     40  H   SGN d5702      63.124  41.490  40.502  0.00  0.00     0.212 HD
ENDBRANCH   6  39
TORSDOF 14
ENDMDL
MODEL 17
REMARK VINA RESULT:      -4.0      3.650      6.492
REMARK  14 active torsions:
REMARK  status: ('A' for Active; 'I' for Inactive)
REMARK    1  A    between atoms: C5_1  and  C6_23 
REMARK    2  A    between atoms: S2_5  and  O6_7 
REMARK    3  A    between atoms: O1_6  and  C1_35 
REMARK    4  A    between atoms: O6_7  and  C6_21 
REMARK    5  A    between atoms: O2_9  and  C2_28 
REMARK    6  A    between atoms: O2_9  and  S_13 
REMARK    7  A    between atoms: C3_10  and  O3_20 
REMARK    8  A    between atoms: C1_11  and  O4_12 
REMARK    9  A    between atoms: O4_12  and  C4_19 
REMARK   10  A    between atoms: C2_15  and  N_29 
REMARK   11  A    between atoms: C5_17  and  C6_21 
REMARK   12  A    between atoms: C6_23  and  O61_33 
REMARK   13  A    between atoms: O3_24  and  C3_26 
REMARK   14  A    between atoms: S1_27  and  N_29 
ROOT
ATOM      1  O5  SGN d5702      63.505  38.158  38.015  0.00  0.00    -0.350 OA
ATOM      2  C2  SGN d5702      62.535  37.747  40.172  0.00  0.00     0.160 C 
ATOM      3  C5  SGN d5702      63.129  39.514  38.019  0.00  0.00     0.181 C 
ATOM      4  C4  SGN d5702      63.051  40.011  39.476  0.00  0.00     0.186 C 
ATOM      5  C3  SGN d5702      61.988  39.149  40.210  0.00  0.00     0.173 C 
ATOM      6  C1  SGN d5702      62.653  37.265  38.737  0.00  0.00     0.278 C 
ENDROOT
BRANCH   4   7
ATOM      7  O4  SGN d5702      62.675  41.414  39.407  0.00  0.00    -0.348 OA
BRANCH   7   8
ATOM      8  C1  IDU d1623      63.180  42.457  40.216  0.00  0.00     0.294 C 
ATOM      9  O5  IDU d1623      64.604  42.725  40.002  0.00  0.00    -0.343 OA
ATOM     10  C5  IDU d1623      65.168  43.719  40.928  0.00  0.00     0.224 C 
ATOM     11  C4  IDU d1623      64.433  45.055  40.729  0.00  0.00     0.077 C 
ATOM     12  C3  IDU d1623      62.926  44.854  40.955  0.00  0.00     0.156 C 
ATOM     13  C2  IDU d1623      62.443  43.782  39.965  0.00  0.00     0.228 C 
BRANCH  10  14
ATOM     14  C6  IDU d1623      66.632  43.944  40.668  0.00  0.00     0.170 C 
ATOM     15  O62 IDU d1623      66.957  44.874  39.913  0.00  0.00    -0.648 OA
BRANCH  14  16
ATOM     16  O61 IDU d1623      67.445  43.180  41.226  0.00  0.00    -0.774 OA
ENDBRANCH  14  16
ENDBRANCH  10  14
BRANCH  12  18
ATOM     18  O3  IDU d1623      62.703  44.429  42.270  0.00  0.00    -0.393 OA
ATOM     19  H   IDU d1623      62.858  43.474  42.332  0.00  0.00     0.210 HD
ENDBRANCH  12  18
BRANCH  13  20
ATOM     20  O2  IDU d1623      62.731  44.186  38.647  0.00  0.00    -0.244 OA
BRANCH  20  21
ATOM     21  S   IDU d1623      61.490  45.000  37.753  0.00  0.00     0.252 S 
ATOM     22  O3S IDU d1623      60.725  44.075  37.004  0.00  0.00    -0.572 OA
ATOM     23  O1S IDU d1623      62.143  45.989  36.949  0.00  0.00    -0.572 OA
ATOM     24  O2S IDU d1623      60.554  45.660  38.650  0.00  0.00    -0.572 OA
ENDBRANCH  20  21
ENDBRANCH  13  20
ENDBRANCH   7   8
ENDBRANCH   4   7
BRANCH   3  25
ATOM     25  C6  SGN d5702      64.154  40.259  37.221  0.00  0.00     0.227 C 
BRANCH  25  26
ATOM     26  O6  SGN d5702      63.758  40.027  35.878  0.00  0.00    -0.254 OA
BRANCH  26  27
ATOM     27  S2  SGN d5702      62.925  41.285  35.030  0.00  0.00     0.251 S 
ATOM     28  O4S SGN d5702      61.514  41.073  35.040  0.00  0.00    -0.572 OA
ATOM     29  O5S SGN d5702      63.389  41.302  33.672  0.00  0.00    -0.572 OA
ATOM     30  O6S SGN d5702      63.230  42.489  35.746  0.00  0.00    -0.572 OA
ENDBRANCH  26  27
ENDBRANCH  25  26
ENDBRANCH   3  25
BRANCH   5  31
ATOM     31  O3  SGN d5702      61.888  39.556  41.553  0.00  0.00    -0.391 OA
ATOM     32  H   SGN d5702      62.403  40.367  41.685  0.00  0.00     0.210 HD
ENDBRANCH   5  31
BRANCH   2  33
ATOM     33  N   SGN d5702      61.656  36.854  40.853  0.00  0.00    -0.189 NA
ATOM     34  H   SGN d5702      61.421  36.083  40.228  0.00  0.00     0.143 HD
BRANCH  33  35
ATOM     35  S1  SGN d5702      62.387  36.198  42.320  0.00  0.00     0.183 S 
ATOM     36  O1S SGN d5702      61.705  34.965  42.661  0.00  0.00    -0.582 OA
ATOM     37  O2S SGN d5702      62.174  37.117  43.390  0.00  0.00    -0.582 OA
ATOM     38  O3S SGN d5702      63.791  36.020  41.999  0.00  0.00    -0.582 OA
ENDBRANCH  33  35
ENDBRANCH   2  33
BRANCH   6  39
ATOM     39  O1  SGN d5702      61.404  37.150  38.100  0.00  0.00    -0.369 OA
ATOM     40  H   SGN d5702      60.809  37.842  38.428  0.00  0.00     0.212 HD
ENDBRANCH   6  39
TORSDOF 14
ENDMDL
MODEL 18
REMARK VINA RESULT:      -4.0      2.385      7.703
REMARK  14 active torsions:
REMARK  status: ('A' for Active; 'I' for Inactive)
REMARK    1  A    between atoms: C5_1  and  C6_23 
REMARK    2  A    between atoms: S2_5  and  O6_7 
REMARK    3  A    between atoms: O1_6  and  C1_35 
REMARK    4  A    between atoms: O6_7  and  C6_21 
REMARK    5  A    between atoms: O2_9  and  C2_28 
REMARK    6  A    between atoms: O2_9  and  S_13 
REMARK    7  A    between atoms: C3_10  and  O3_20 
REMARK    8  A    between atoms: C1_11  and  O4_12 
REMARK    9  A    between atoms: O4_12  and  C4_19 
REMARK   10  A    between atoms: C2_15  and  N_29 
REMARK   11  A    between atoms: C5_17  and  C6_21 
REMARK   12  A    between atoms: C6_23  and  O61_33 
REMARK   13  A    between atoms: O3_24  and  C3_26 
REMARK   14  A    between atoms: S1_27  and  N_29 
ROOT
ATOM      1  O5  SGN d5702      62.737  41.393  34.316  0.00  0.00    -0.350 OA
ATOM      2  C2  SGN d5702      65.129  41.529  34.471  0.00  0.00     0.160 C 
ATOM      3  C5  SGN d5702      62.653  40.396  35.305  0.00  0.00     0.181 C 
ATOM      4  C4  SGN d5702      63.842  40.546  36.275  0.00  0.00     0.186 C 
ATOM      5  C3  SGN d5702      65.146  40.383  35.448  0.00  0.00     0.173 C 
ATOM      6  C1  SGN d5702      63.937  41.410  33.538  0.00  0.00     0.278 C 
ENDROOT
BRANCH   4   7
ATOM      7  O4  SGN d5702      63.686  39.501  37.274  0.00  0.00    -0.348 OA
BRANCH   7   8
ATOM      8  C1  IDU d1623      63.984  39.608  38.651  0.00  0.00     0.294 C 
ATOM      9  O5  IDU d1623      63.035  40.442  39.391  0.00  0.00    -0.343 OA
ATOM     10  C5  IDU d1623      63.409  40.664  40.797  0.00  0.00     0.224 C 
ATOM     11  C4  IDU d1623      63.457  39.306  41.517  0.00  0.00     0.077 C 
ATOM     12  C3  IDU d1623      64.451  38.378  40.802  0.00  0.00     0.156 C 
ATOM     13  C2  IDU d1623      63.992  38.235  39.343  0.00  0.00     0.228 C 
BRANCH  10  14
ATOM     14  C6  IDU d1623      62.404  41.535  41.502  0.00  0.00     0.170 C 
ATOM     15  O62 IDU d1623      62.238  42.692  41.086  0.00  0.00    -0.648 OA
BRANCH  14  16
ATOM     16  O61 IDU d1623      61.790  41.045  42.472  0.00  0.00    -0.774 OA
ENDBRANCH  14  16
ENDBRANCH  10  14
BRANCH  12  18
ATOM     18  O3  IDU d1623      65.733  38.940  40.850  0.00  0.00    -0.393 OA
ATOM     19  H   IDU d1623      65.687  39.815  41.266  0.00  0.00     0.210 HD
ENDBRANCH  12  18
BRANCH  13  20
ATOM     20  O2  IDU d1623      62.677  37.732  39.304  0.00  0.00    -0.244 OA
BRANCH  20  21
ATOM     21  S   IDU d1623      62.455  36.017  39.400  0.00  0.00     0.252 S 
ATOM     22  O3S IDU d1623      61.522  35.579  38.431  0.00  0.00    -0.572 OA
ATOM     23  O1S IDU d1623      62.065  35.726  40.746  0.00  0.00    -0.572 OA
ATOM     24  O2S IDU d1623      63.697  35.318  39.104  0.00  0.00    -0.572 OA
ENDBRANCH  20  21
ENDBRANCH  13  20
ENDBRANCH   7   8
ENDBRANCH   4   7
BRANCH   3  25
ATOM     25  C6  SGN d5702      61.336  40.569  35.996  0.00  0.00     0.227 C 
BRANCH  25  26
ATOM     26  O6  SGN d5702      60.797  41.733  35.388  0.00  0.00    -0.254 OA
BRANCH  26  27
ATOM     27  S2  SGN d5702      60.940  43.244  36.219  0.00  0.00     0.251 S 
ATOM     28  O4S SGN d5702      61.620  43.090  37.464  0.00  0.00    -0.572 OA
ATOM     29  O5S SGN d5702      59.621  43.755  36.463  0.00  0.00    -0.572 OA
ATOM     30  O6S SGN d5702      61.718  44.080  35.352  0.00  0.00    -0.572 OA
ENDBRANCH  26  27
ENDBRANCH  25  26
ENDBRANCH   3  25
BRANCH   5  31
ATOM     31  O3  SGN d5702      66.266  40.524  36.287  0.00  0.00    -0.391 OA
ATOM     32  H   SGN d5702      66.613  39.648  36.514  0.00  0.00     0.210 HD
ENDBRANCH   5  31
BRANCH   2  33
ATOM     33  N   SGN d5702      66.306  41.510  33.666  0.00  0.00    -0.189 NA
ATOM     34  H   SGN d5702      66.035  41.417  32.687  0.00  0.00     0.143 HD
BRANCH  33  35
ATOM     35  S1  SGN d5702      67.260  42.984  33.857  0.00  0.00     0.183 S 
ATOM     36  O1S SGN d5702      66.570  44.068  33.186  0.00  0.00    -0.582 OA
ATOM     37  O2S SGN d5702      68.516  42.806  33.204  0.00  0.00    -0.582 OA
ATOM     38  O3S SGN d5702      67.390  43.170  35.289  0.00  0.00    -0.582 OA
ENDBRANCH  33  35
ENDBRANCH   2  33
BRANCH   6  39
ATOM     39  O1  SGN d5702      64.006  40.272  32.712  0.00  0.00    -0.369 OA
ATOM     40  H   SGN d5702      64.109  40.549  31.788  0.00  0.00     0.212 HD
ENDBRANCH   6  39
TORSDOF 14
ENDMDL
MODEL 19
REMARK VINA RESULT:      -3.9      2.341      3.468
REMARK  14 active torsions:
REMARK  status: ('A' for Active; 'I' for Inactive)
REMARK    1  A    between atoms: C5_1  and  C6_23 
REMARK    2  A    between atoms: S2_5  and  O6_7 
REMARK    3  A    between atoms: O1_6  and  C1_35 
REMARK    4  A    between atoms: O6_7  and  C6_21 
REMARK    5  A    between atoms: O2_9  and  C2_28 
REMARK    6  A    between atoms: O2_9  and  S_13 
REMARK    7  A    between atoms: C3_10  and  O3_20 
REMARK    8  A    between atoms: C1_11  and  O4_12 
REMARK    9  A    between atoms: O4_12  and  C4_19 
REMARK   10  A    between atoms: C2_15  and  N_29 
REMARK   11  A    between atoms: C5_17  and  C6_21 
REMARK   12  A    between atoms: C6_23  and  O61_33 
REMARK   13  A    between atoms: O3_24  and  C3_26 
REMARK   14  A    between atoms: S1_27  and  N_29 
ROOT
ATOM      1  O5  SGN d5702      61.180  39.342  37.317  0.00  0.00    -0.350 OA
ATOM      2  C2  SGN d5702      63.188  38.136  37.842  0.00  0.00     0.160 C 
ATOM      3  C5  SGN d5702      61.836  40.586  37.316  0.00  0.00     0.181 C 
ATOM      4  C4  SGN d5702      63.314  40.378  36.929  0.00  0.00     0.186 C 
ATOM      5  C3  SGN d5702      63.946  39.429  37.982  0.00  0.00     0.173 C 
ATOM      6  C1  SGN d5702      61.724  38.342  38.183  0.00  0.00     0.278 C 
ENDROOT
BRANCH   4   7
ATOM      7  O4  SGN d5702      63.925  41.697  36.932  0.00  0.00    -0.348 OA
BRANCH   7   8
ATOM      8  C1  IDU d1623      64.647  42.289  35.872  0.00  0.00     0.294 C 
ATOM      9  O5  IDU d1623      63.791  42.845  34.822  0.00  0.00    -0.343 OA
ATOM     10  C5  IDU d1623      64.533  43.348  33.654  0.00  0.00     0.224 C 
ATOM     11  C4  IDU d1623      65.466  44.482  34.110  0.00  0.00     0.077 C 
ATOM     12  C3  IDU d1623      66.410  43.964  35.207  0.00  0.00     0.156 C 
ATOM     13  C2  IDU d1623      65.543  43.438  36.361  0.00  0.00     0.228 C 
BRANCH  10  14
ATOM     14  C6  IDU d1623      63.602  43.896  32.607  0.00  0.00     0.170 C 
ATOM     15  O62 IDU d1623      63.614  43.374  31.482  0.00  0.00    -0.648 OA
BRANCH  14  16
ATOM     16  O61 IDU d1623      62.867  44.852  32.927  0.00  0.00    -0.774 OA
ENDBRANCH  14  16
ENDBRANCH  10  14
BRANCH  12  18
ATOM     18  O3  IDU d1623      67.203  42.932  34.692  0.00  0.00    -0.393 OA
ATOM     19  H   IDU d1623      66.634  42.256  34.290  0.00  0.00     0.210 HD
ENDBRANCH  12  18
BRANCH  13  20
ATOM     20  O2  IDU d1623      64.700  44.464  36.830  0.00  0.00    -0.244 OA
BRANCH  20  21
ATOM     21  S   IDU d1623      64.641  44.756  38.537  0.00  0.00     0.252 S 
ATOM     22  O3S IDU d1623      64.474  46.137  38.801  0.00  0.00    -0.572 OA
ATOM     23  O1S IDU d1623      65.841  44.207  39.091  0.00  0.00    -0.572 OA
ATOM     24  O2S IDU d1623      63.494  44.092  39.136  0.00  0.00    -0.572 OA
ENDBRANCH  20  21
ENDBRANCH  13  20
ENDBRANCH   7   8
ENDBRANCH   4   7
BRANCH   3  25
ATOM     25  C6  SGN d5702      61.115  41.466  36.343  0.00  0.00     0.227 C 
BRANCH  25  26
ATOM     26  O6  SGN d5702      60.649  42.536  37.150  0.00  0.00    -0.254 OA
BRANCH  26  27
ATOM     27  S2  SGN d5702      60.300  44.054  36.394  0.00  0.00     0.251 S 
ATOM     28  O4S SGN d5702      59.287  44.767  37.103  0.00  0.00    -0.572 OA
ATOM     29  O5S SGN d5702      59.849  43.801  35.055  0.00  0.00    -0.572 OA
ATOM     30  O6S SGN d5702      61.527  44.793  36.448  0.00  0.00    -0.572 OA
ENDBRANCH  26  27
ENDBRANCH  25  26
ENDBRANCH   3  25
BRANCH   5  31
ATOM     31  O3  SGN d5702      65.297  39.195  37.665  0.00  0.00    -0.391 OA
ATOM     32  H   SGN d5702      65.432  38.249  37.502  0.00  0.00     0.210 HD
ENDBRANCH   5  31
BRANCH   2  33
ATOM     33  N   SGN d5702      63.705  37.159  38.744  0.00  0.00    -0.189 NA
ATOM     34  H   SGN d5702      62.952  36.846  39.357  0.00  0.00     0.143 HD
BRANCH  33  35
ATOM     35  S1  SGN d5702      64.368  35.760  37.894  0.00  0.00     0.183 S 
ATOM     36  O1S SGN d5702      63.277  34.864  37.565  0.00  0.00    -0.582 OA
ATOM     37  O2S SGN d5702      65.247  35.062  38.774  0.00  0.00    -0.582 OA
ATOM     38  O3S SGN d5702      65.046  36.306  36.734  0.00  0.00    -0.582 OA
ENDBRANCH  33  35
ENDBRANCH   2  33
BRANCH   6  39
ATOM     39  O1  SGN d5702      61.526  38.697  39.531  0.00  0.00    -0.369 OA
ATOM     40  H   SGN d5702      61.585  37.903  40.086  0.00  0.00     0.212 HD
ENDBRANCH   6  39
TORSDOF 14
ENDMDL
MODEL 20
REMARK VINA RESULT:      -3.9      1.517      2.202
REMARK  14 active torsions:
REMARK  status: ('A' for Active; 'I' for Inactive)
REMARK    1  A    between atoms: C5_1  and  C6_23 
REMARK    2  A    between atoms: S2_5  and  O6_7 
REMARK    3  A    between atoms: O1_6  and  C1_35 
REMARK    4  A    between atoms: O6_7  and  C6_21 
REMARK    5  A    between atoms: O2_9  and  C2_28 
REMARK    6  A    between atoms: O2_9  and  S_13 
REMARK    7  A    between atoms: C3_10  and  O3_20 
REMARK    8  A    between atoms: C1_11  and  O4_12 
REMARK    9  A    between atoms: O4_12  and  C4_19 
REMARK   10  A    between atoms: C2_15  and  N_29 
REMARK   11  A    between atoms: C5_17  and  C6_21 
REMARK   12  A    between atoms: C6_23  and  O61_33 
REMARK   13  A    between atoms: O3_24  and  C3_26 
REMARK   14  A    between atoms: S1_27  and  N_29 
ROOT
ATOM      1  O5  SGN d5702      61.224  39.802  37.486  0.00  0.00    -0.350 OA
ATOM      2  C2  SGN d5702      62.839  38.093  37.971  0.00  0.00     0.160 C 
ATOM      3  C5  SGN d5702      62.171  40.623  36.846  0.00  0.00     0.181 C 
ATOM      4  C4  SGN d5702      63.283  39.738  36.246  0.00  0.00     0.186 C 
ATOM      5  C3  SGN d5702      63.941  38.955  37.414  0.00  0.00     0.173 C 
ATOM      6  C1  SGN d5702      61.723  38.957  38.527  0.00  0.00     0.278 C 
ENDROOT
BRANCH   4   7
ATOM      7  O4  SGN d5702      64.213  40.643  35.591  0.00  0.00    -0.348 OA
BRANCH   7   8
ATOM      8  C1  IDU d1623      64.931  40.388  34.401  0.00  0.00     0.294 C 
ATOM      9  O5  IDU d1623      64.114  40.497  33.191  0.00  0.00    -0.343 OA
ATOM     10  C5  IDU d1623      64.819  40.110  31.959  0.00  0.00     0.224 C 
ATOM     11  C4  IDU d1623      66.024  41.044  31.763  0.00  0.00     0.077 C 
ATOM     12  C3  IDU d1623      66.941  40.970  32.994  0.00  0.00     0.156 C 
ATOM     13  C2  IDU d1623      66.107  41.362  34.224  0.00  0.00     0.228 C 
BRANCH  10  14
ATOM     14  C6  IDU d1623      63.927  40.232  30.754  0.00  0.00     0.170 C 
ATOM     15  O62 IDU d1623      63.506  39.190  30.229  0.00  0.00    -0.648 OA
BRANCH  14  16
ATOM     16  O61 IDU d1623      63.660  41.380  30.344  0.00  0.00    -0.774 OA
ENDBRANCH  14  16
ENDBRANCH  10  14
BRANCH  12  18
ATOM     18  O3  IDU d1623      67.425  39.663  33.138  0.00  0.00    -0.393 OA
ATOM     19  H   IDU d1623      66.713  39.032  32.949  0.00  0.00     0.210 HD
ENDBRANCH  12  18
BRANCH  13  20
ATOM     20  O2  IDU d1623      65.569  42.650  34.043  0.00  0.00    -0.244 OA
BRANCH  20  21
ATOM     21  S   IDU d1623      66.605  44.014  34.310  0.00  0.00     0.252 S 
ATOM     22  O3S IDU d1623      67.217  44.420  33.101  0.00  0.00    -0.572 OA
ATOM     23  O1S IDU d1623      67.538  43.630  35.326  0.00  0.00    -0.572 OA
ATOM     24  O2S IDU d1623      65.840  45.160  34.776  0.00  0.00    -0.572 OA
ENDBRANCH  20  21
ENDBRANCH  13  20
ENDBRANCH   7   8
ENDBRANCH   4   7
BRANCH   3  25
ATOM     25  C6  SGN d5702      61.443  41.403  35.797  0.00  0.00     0.227 C 
BRANCH  25  26
ATOM     26  O6  SGN d5702      61.258  42.674  36.402  0.00  0.00    -0.254 OA
BRANCH  26  27
ATOM     27  S2  SGN d5702      62.388  43.935  36.041  0.00  0.00     0.251 S 
ATOM     28  O4S SGN d5702      62.585  44.070  34.634  0.00  0.00    -0.572 OA
ATOM     29  O5S SGN d5702      63.641  43.615  36.665  0.00  0.00    -0.572 OA
ATOM     30  O6S SGN d5702      61.791  45.134  36.554  0.00  0.00    -0.572 OA
ENDBRANCH  26  27
ENDBRANCH  25  26
ENDBRANCH   3  25
BRANCH   5  31
ATOM     31  O3  SGN d5702      64.958  38.119  36.916  0.00  0.00    -0.391 OA
ATOM     32  H   SGN d5702      65.621  38.656  36.455  0.00  0.00     0.210 HD
ENDBRANCH   5  31
BRANCH   2  33
ATOM     33  N   SGN d5702      63.333  37.290  39.041  0.00  0.00    -0.189 NA
ATOM     34  H   SGN d5702      62.824  37.527  39.893  0.00  0.00     0.143 HD
BRANCH  33  35
ATOM     35  S1  SGN d5702      63.133  35.565  38.719  0.00  0.00     0.183 S 
ATOM     36  O1S SGN d5702      63.795  35.251  37.469  0.00  0.00    -0.582 OA
ATOM     37  O2S SGN d5702      61.744  35.287  38.550  0.00  0.00    -0.582 OA
ATOM     38  O3S SGN d5702      63.707  34.894  39.870  0.00  0.00    -0.582 OA
ENDBRANCH  33  35
ENDBRANCH   2  33
BRANCH   6  39
ATOM     39  O1  SGN d5702      62.132  39.726  39.633  0.00  0.00    -0.369 OA
ATOM     40  H   SGN d5702      61.373  40.220  39.981  0.00  0.00     0.212 HD
ENDBRANCH   6  39
TORSDOF 14
ENDMDL
MODEL 21
REMARK VINA RESULT:      -3.9      2.913      7.683
REMARK  14 active torsions:
REMARK  status: ('A' for Active; 'I' for Inactive)
REMARK    1  A    between atoms: C5_1  and  C6_23 
REMARK    2  A    between atoms: S2_5  and  O6_7 
REMARK    3  A    between atoms: O1_6  and  C1_35 
REMARK    4  A    between atoms: O6_7  and  C6_21 
REMARK    5  A    between atoms: O2_9  and  C2_28 
REMARK    6  A    between atoms: O2_9  and  S_13 
REMARK    7  A    between atoms: C3_10  and  O3_20 
REMARK    8  A    between atoms: C1_11  and  O4_12 
REMARK    9  A    between atoms: O4_12  and  C4_19 
REMARK   10  A    between atoms: C2_15  and  N_29 
REMARK   11  A    between atoms: C5_17  and  C6_21 
REMARK   12  A    between atoms: C6_23  and  O61_33 
REMARK   13  A    between atoms: O3_24  and  C3_26 
REMARK   14  A    between atoms: S1_27  and  N_29 
ROOT
ATOM      1  O5  SGN d5702      61.382  40.601  37.171  0.00  0.00    -0.350 OA
ATOM      2  C2  SGN d5702      62.814  41.666  35.565  0.00  0.00     0.160 C 
ATOM      3  C5  SGN d5702      62.210  39.468  37.272  0.00  0.00     0.181 C 
ATOM      4  C4  SGN d5702      63.664  39.875  36.961  0.00  0.00     0.186 C 
ATOM      5  C3  SGN d5702      63.694  40.444  35.517  0.00  0.00     0.173 C 
ATOM      6  C1  SGN d5702      61.389  41.277  35.910  0.00  0.00     0.278 C 
ENDROOT
BRANCH   4   7
ATOM      7  O4  SGN d5702      64.462  38.668  37.098  0.00  0.00    -0.348 OA
BRANCH   7   8
ATOM      8  C1  IDU d1623      65.767  38.582  37.633  0.00  0.00     0.294 C 
ATOM      9  O5  IDU d1623      65.857  39.022  39.026  0.00  0.00    -0.343 OA
ATOM     10  C5  IDU d1623      67.231  39.059  39.552  0.00  0.00     0.224 C 
ATOM     11  C4  IDU d1623      67.820  37.640  39.498  0.00  0.00     0.077 C 
ATOM     12  C3  IDU d1623      67.774  37.116  38.054  0.00  0.00     0.156 C 
ATOM     13  C2  IDU d1623      66.309  37.145  37.592  0.00  0.00     0.228 C 
BRANCH  10  14
ATOM     14  C6  IDU d1623      67.260  39.527  40.981  0.00  0.00     0.170 C 
ATOM     15  O62 IDU d1623      67.517  40.721  41.201  0.00  0.00    -0.648 OA
BRANCH  14  16
ATOM     16  O61 IDU d1623      67.025  38.686  41.872  0.00  0.00    -0.774 OA
ENDBRANCH  14  16
ENDBRANCH  10  14
BRANCH  12  18
ATOM     18  O3  IDU d1623      68.554  37.939  37.233  0.00  0.00    -0.393 OA
ATOM     19  H   IDU d1623      69.482  37.664  37.288  0.00  0.00     0.210 HD
ENDBRANCH  12  18
BRANCH  13  20
ATOM     20  O2  IDU d1623      65.519  36.368  38.461  0.00  0.00    -0.244 OA
BRANCH  20  21
ATOM     21  S   IDU d1623      64.411  35.233  37.764  0.00  0.00     0.252 S 
ATOM     22  O3S IDU d1623      63.074  35.632  38.001  0.00  0.00    -0.572 OA
ATOM     23  O1S IDU d1623      64.734  33.951  38.312  0.00  0.00    -0.572 OA
ATOM     24  O2S IDU d1623      64.563  35.184  36.318  0.00  0.00    -0.572 OA
ENDBRANCH  20  21
ENDBRANCH  13  20
ENDBRANCH   7   8
ENDBRANCH   4   7
BRANCH   3  25
ATOM     25  C6  SGN d5702      62.057  38.932  38.661  0.00  0.00     0.227 C 
BRANCH  25  26
ATOM     26  O6  SGN d5702      62.399  40.040  39.480  0.00  0.00    -0.254 OA
BRANCH  26  27
ATOM     27  S2  SGN d5702      62.978  39.739  41.083  0.00  0.00     0.251 S 
ATOM     28  O4S SGN d5702      64.032  40.636  41.432  0.00  0.00    -0.572 OA
ATOM     29  O5S SGN d5702      63.467  38.390  41.144  0.00  0.00    -0.572 OA
ATOM     30  O6S SGN d5702      61.853  39.970  41.941  0.00  0.00    -0.572 OA
ENDBRANCH  26  27
ENDBRANCH  25  26
ENDBRANCH   3  25
BRANCH   5  31
ATOM     31  O3  SGN d5702      65.002  40.845  35.188  0.00  0.00    -0.391 OA
ATOM     32  H   SGN d5702      64.967  41.538  34.511  0.00  0.00     0.210 HD
ENDBRANCH   5  31
BRANCH   2  33
ATOM     33  N   SGN d5702      62.787  42.306  34.292  0.00  0.00    -0.189 NA
ATOM     34  H   SGN d5702      61.823  42.339  33.959  0.00  0.00     0.143 HD
BRANCH  33  35
ATOM     35  S1  SGN d5702      63.421  43.954  34.366  0.00  0.00     0.183 S 
ATOM     36  O1S SGN d5702      64.866  43.886  34.454  0.00  0.00    -0.582 OA
ATOM     37  O2S SGN d5702      62.947  44.574  35.560  0.00  0.00    -0.582 OA
ATOM     38  O3S SGN d5702      62.938  44.602  33.162  0.00  0.00    -0.582 OA
ENDBRANCH  33  35
ENDBRANCH   2  33
BRANCH   6  39
ATOM     39  O1  SGN d5702      60.790  40.477  34.919  0.00  0.00    -0.369 OA
ATOM     40  H   SGN d5702      61.341  40.486  34.120  0.00  0.00     0.212 HD
ENDBRANCH   6  39
TORSDOF 14
ENDMDL
MODEL 22
REMARK VINA RESULT:      -3.9      2.932      4.481
REMARK  14 active torsions:
REMARK  status: ('A' for Active; 'I' for Inactive)
REMARK    1  A    between atoms: C5_1  and  C6_23 
REMARK    2  A    between atoms: S2_5  and  O6_7 
REMARK    3  A    between atoms: O1_6  and  C1_35 
REMARK    4  A    between atoms: O6_7  and  C6_21 
REMARK    5  A    between atoms: O2_9  and  C2_28 
REMARK    6  A    between atoms: O2_9  and  S_13 
REMARK    7  A    between atoms: C3_10  and  O3_20 
REMARK    8  A    between atoms: C1_11  and  O4_12 
REMARK    9  A    between atoms: O4_12  and  C4_19 
REMARK   10  A    between atoms: C2_15  and  N_29 
REMARK   11  A    between atoms: C5_17  and  C6_21 
REMARK   12  A    between atoms: C6_23  and  O61_33 
REMARK   13  A    between atoms: O3_24  and  C3_26 
REMARK   14  A    between atoms: S1_27  and  N_29 
ROOT
ATOM      1  O5  SGN d5702      62.084  38.030  39.346  0.00  0.00    -0.350 OA
ATOM      2  C2  SGN d5702      63.451  38.551  41.250  0.00  0.00     0.160 C 
ATOM      3  C5  SGN d5702      62.119  39.351  38.863  0.00  0.00     0.181 C 
ATOM      4  C4  SGN d5702      63.429  40.022  39.323  0.00  0.00     0.186 C 
ATOM      5  C3  SGN d5702      63.443  40.009  40.875  0.00  0.00     0.173 C 
ATOM      6  C1  SGN d5702      62.182  37.874  40.765  0.00  0.00     0.278 C 
ENDROOT
BRANCH   4   7
ATOM      7  O4  SGN d5702      63.407  41.370  38.780  0.00  0.00    -0.348 OA
BRANCH   7   8
ATOM      8  C1  IDU d1623      64.424  41.980  38.012  0.00  0.00     0.294 C 
ATOM      9  O5  IDU d1623      64.558  41.417  36.667  0.00  0.00    -0.343 OA
ATOM     10  C5  IDU d1623      65.696  41.957  35.906  0.00  0.00     0.224 C 
ATOM     11  C4  IDU d1623      65.503  43.472  35.733  0.00  0.00     0.077 C 
ATOM     12  C3  IDU d1623      65.371  44.137  37.112  0.00  0.00     0.156 C 
ATOM     13  C2  IDU d1623      64.180  43.487  37.833  0.00  0.00     0.228 C 
BRANCH  10  14
ATOM     14  C6  IDU d1623      65.788  41.335  34.539  0.00  0.00     0.170 C 
ATOM     15  O62 IDU d1623      64.950  41.667  33.687  0.00  0.00    -0.648 OA
BRANCH  14  16
ATOM     16  O61 IDU d1623      66.705  40.513  34.336  0.00  0.00    -0.774 OA
ENDBRANCH  14  16
ENDBRANCH  10  14
BRANCH  12  18
ATOM     18  O3  IDU d1623      66.547  43.931  37.845  0.00  0.00    -0.393 OA
ATOM     19  H   IDU d1623      67.292  44.346  37.383  0.00  0.00     0.210 HD
ENDBRANCH  12  18
BRANCH  13  20
ATOM     20  O2  IDU d1623      63.013  43.640  37.059  0.00  0.00    -0.244 OA
BRANCH  20  21
ATOM     21  S   IDU d1623      61.959  44.966  37.423  0.00  0.00     0.252 S 
ATOM     22  O3S IDU d1623      61.745  45.066  38.818  0.00  0.00    -0.572 OA
ATOM     23  O1S IDU d1623      60.759  44.756  36.671  0.00  0.00    -0.572 OA
ATOM     24  O2S IDU d1623      62.558  46.228  37.018  0.00  0.00    -0.572 OA
ENDBRANCH  20  21
ENDBRANCH  13  20
ENDBRANCH   7   8
ENDBRANCH   4   7
BRANCH   3  25
ATOM     25  C6  SGN d5702      62.014  39.279  37.372  0.00  0.00     0.227 C 
BRANCH  25  26
ATOM     26  O6  SGN d5702      60.946  40.166  37.074  0.00  0.00    -0.254 OA
BRANCH  26  27
ATOM     27  S2  SGN d5702      60.690  40.632  35.427  0.00  0.00     0.251 S 
ATOM     28  O4S SGN d5702      59.919  39.657  34.725  0.00  0.00    -0.572 OA
ATOM     29  O5S SGN d5702      61.969  40.769  34.789  0.00  0.00    -0.572 OA
ATOM     30  O6S SGN d5702      59.956  41.862  35.493  0.00  0.00    -0.572 OA
ENDBRANCH  26  27
ENDBRANCH  25  26
ENDBRANCH   3  25
BRANCH   5  31
ATOM     31  O3  SGN d5702      64.629  40.601  41.347  0.00  0.00    -0.391 OA
ATOM     32  H   SGN d5702      64.628  41.546  41.128  0.00  0.00     0.210 HD
ENDBRANCH   5  31
BRANCH   2  33
ATOM     33  N   SGN d5702      63.499  38.404  42.667  0.00  0.00    -0.189 NA
ATOM     34  H   SGN d5702      62.784  37.736  42.954  0.00  0.00     0.143 HD
BRANCH  33  35
ATOM     35  S1  SGN d5702      65.074  37.825  43.218  0.00  0.00     0.183 S 
ATOM     36  O1S SGN d5702      65.777  38.929  43.841  0.00  0.00    -0.582 OA
ATOM     37  O2S SGN d5702      65.836  37.417  42.083  0.00  0.00    -0.582 OA
ATOM     38  O3S SGN d5702      64.782  36.732  44.125  0.00  0.00    -0.582 OA
ENDBRANCH  33  35
ENDBRANCH   2  33
BRANCH   6  39
ATOM     39  O1  SGN d5702      61.026  38.372  41.397  0.00  0.00    -0.369 OA
ATOM     40  H   SGN d5702      60.302  38.419  40.754  0.00  0.00     0.212 HD
ENDBRANCH   6  39
TORSDOF 14
ENDMDL
MODEL 23
REMARK VINA RESULT:      -3.9      3.611      6.286
REMARK  14 active torsions:
REMARK  status: ('A' for Active; 'I' for Inactive)
REMARK    1  A    between atoms: C5_1  and  C6_23 
REMARK    2  A    between atoms: S2_5  and  O6_7 
REMARK    3  A    between atoms: O1_6  and  C1_35 
REMARK    4  A    between atoms: O6_7  and  C6_21 
REMARK    5  A    between atoms: O2_9  and  C2_28 
REMARK    6  A    between atoms: O2_9  and  S_13 
REMARK    7  A    between atoms: C3_10  and  O3_20 
REMARK    8  A    between atoms: C1_11  and  O4_12 
REMARK    9  A    between atoms: O4_12  and  C4_19 
REMARK   10  A    between atoms: C2_15  and  N_29 
REMARK   11  A    between atoms: C5_17  and  C6_21 
REMARK   12  A    between atoms: C6_23  and  O61_33 
REMARK   13  A    between atoms: O3_24  and  C3_26 
REMARK   14  A    between atoms: S1_27  and  N_29 
ROOT
ATOM      1  O5  SGN d5702      60.704  44.774  37.688  0.00  0.00    -0.350 OA
ATOM      2  C2  SGN d5702      61.534  44.801  39.940  0.00  0.00     0.160 C 
ATOM      3  C5  SGN d5702      61.890  44.217  37.175  0.00  0.00     0.181 C 
ATOM      4  C4  SGN d5702      62.567  43.374  38.274  0.00  0.00     0.186 C 
ATOM      5  C3  SGN d5702      62.880  44.319  39.465  0.00  0.00     0.173 C 
ATOM      6  C1  SGN d5702      60.844  45.598  38.849  0.00  0.00     0.278 C 
ENDROOT
BRANCH   4   7
ATOM      7  O4  SGN d5702      63.770  42.819  37.677  0.00  0.00    -0.348 OA
BRANCH   7   8
ATOM      8  C1  IDU d1623      64.454  41.656  38.096  0.00  0.00     0.294 C 
ATOM      9  O5  IDU d1623      63.636  40.443  38.036  0.00  0.00    -0.343 OA
ATOM     10  C5  IDU d1623      64.296  39.251  38.592  0.00  0.00     0.224 C 
ATOM     11  C4  IDU d1623      65.569  38.965  37.777  0.00  0.00     0.077 C 
ATOM     12  C3  IDU d1623      66.489  40.196  37.809  0.00  0.00     0.156 C 
ATOM     13  C2  IDU d1623      65.701  41.385  37.239  0.00  0.00     0.228 C 
BRANCH  10  14
ATOM     14  C6  IDU d1623      63.405  38.042  38.512  0.00  0.00     0.170 C 
ATOM     15  O62 IDU d1623      62.333  38.062  39.137  0.00  0.00    -0.648 OA
BRANCH  14  16
ATOM     16  O61 IDU d1623      63.793  37.079  37.820  0.00  0.00    -0.774 OA
ENDBRANCH  14  16
ENDBRANCH  10  14
BRANCH  12  18
ATOM     18  O3  IDU d1623      66.871  40.460  39.130  0.00  0.00    -0.393 OA
ATOM     19  H   IDU d1623      67.364  41.295  39.163  0.00  0.00     0.210 HD
ENDBRANCH  12  18
BRANCH  13  20
ATOM     20  O2  IDU d1623      65.264  41.086  35.935  0.00  0.00    -0.244 OA
BRANCH  20  21
ATOM     21  S   IDU d1623      65.860  42.057  34.630  0.00  0.00     0.252 S 
ATOM     22  O3S IDU d1623      67.245  42.302  34.782  0.00  0.00    -0.572 OA
ATOM     23  O1S IDU d1623      65.065  43.248  34.605  0.00  0.00    -0.572 OA
ATOM     24  O2S IDU d1623      65.714  41.362  33.360  0.00  0.00    -0.572 OA
ENDBRANCH  20  21
ENDBRANCH  13  20
ENDBRANCH   7   8
ENDBRANCH   4   7
BRANCH   3  25
ATOM     25  C6  SGN d5702      61.512  43.394  35.983  0.00  0.00     0.227 C 
BRANCH  25  26
ATOM     26  O6  SGN d5702      61.000  42.201  36.557  0.00  0.00    -0.254 OA
BRANCH  26  27
ATOM     27  S2  SGN d5702      61.012  40.753  35.609  0.00  0.00     0.251 S 
ATOM     28  O4S SGN d5702      59.874  40.684  34.751  0.00  0.00    -0.572 OA
ATOM     29  O5S SGN d5702      61.001  39.627  36.499  0.00  0.00    -0.572 OA
ATOM     30  O6S SGN d5702      62.203  40.833  34.815  0.00  0.00    -0.572 OA
ENDBRANCH  26  27
ENDBRANCH  25  26
ENDBRANCH   3  25
BRANCH   5  31
ATOM     31  O3  SGN d5702      63.489  43.593  40.505  0.00  0.00    -0.391 OA
ATOM     32  H   SGN d5702      64.288  43.157  40.169  0.00  0.00     0.210 HD
ENDBRANCH   5  31
BRANCH   2  33
ATOM     33  N   SGN d5702      61.686  45.660  41.068  0.00  0.00    -0.189 NA
ATOM     34  H   SGN d5702      61.284  46.571  40.844  0.00  0.00     0.143 HD
BRANCH  33  35
ATOM     35  S1  SGN d5702      60.880  45.018  42.502  0.00  0.00     0.183 S 
ATOM     36  O1S SGN d5702      59.512  45.495  42.512  0.00  0.00    -0.582 OA
ATOM     37  O2S SGN d5702      61.525  45.537  43.663  0.00  0.00    -0.582 OA
ATOM     38  O3S SGN d5702      60.996  43.576  42.389  0.00  0.00    -0.582 OA
ENDBRANCH  33  35
ENDBRANCH   2  33
BRANCH   6  39
ATOM     39  O1  SGN d5702      61.527  46.787  38.531  0.00  0.00    -0.369 OA
ATOM     40  H   SGN d5702      62.474  46.671  38.704  0.00  0.00     0.212 HD
ENDBRANCH   6  39
TORSDOF 14
ENDMDL
MODEL 24
REMARK VINA RESULT:      -3.9      2.841      3.524
REMARK  14 active torsions:
REMARK  status: ('A' for Active; 'I' for Inactive)
REMARK    1  A    between atoms: C5_1  and  C6_23 
REMARK    2  A    between atoms: S2_5  and  O6_7 
REMARK    3  A    between atoms: O1_6  and  C1_35 
REMARK    4  A    between atoms: O6_7  and  C6_21 
REMARK    5  A    between atoms: O2_9  and  C2_28 
REMARK    6  A    between atoms: O2_9  and  S_13 
REMARK    7  A    between atoms: C3_10  and  O3_20 
REMARK    8  A    between atoms: C1_11  and  O4_12 
REMARK    9  A    between atoms: O4_12  and  C4_19 
REMARK   10  A    between atoms: C2_15  and  N_29 
REMARK   11  A    between atoms: C5_17  and  C6_21 
REMARK   12  A    between atoms: C6_23  and  O61_33 
REMARK   13  A    between atoms: O3_24  and  C3_26 
REMARK   14  A    between atoms: S1_27  and  N_29 
ROOT
ATOM      1  O5  SGN d5702      62.193  43.110  37.792  0.00  0.00    -0.350 OA
ATOM      2  C2  SGN d5702      64.258  42.607  38.907  0.00  0.00     0.160 C 
ATOM      3  C5  SGN d5702      62.843  43.612  36.649  0.00  0.00     0.181 C 
ATOM      4  C4  SGN d5702      64.213  42.920  36.504  0.00  0.00     0.186 C 
ATOM      5  C3  SGN d5702      65.036  43.235  37.781  0.00  0.00     0.173 C 
ATOM      6  C1  SGN d5702      62.892  43.256  39.031  0.00  0.00     0.278 C 
ENDROOT
BRANCH   4   7
ATOM      7  O4  SGN d5702      64.820  43.470  35.303  0.00  0.00    -0.348 OA
BRANCH   7   8
ATOM      8  C1  IDU d1623      65.647  42.778  34.390  0.00  0.00     0.294 C 
ATOM      9  O5  IDU d1623      64.980  41.650  33.737  0.00  0.00    -0.343 OA
ATOM     10  C5  IDU d1623      65.868  40.846  32.883  0.00  0.00     0.224 C 
ATOM     11  C4  IDU d1623      66.420  41.741  31.761  0.00  0.00     0.077 C 
ATOM     12  C3  IDU d1623      67.152  42.945  32.374  0.00  0.00     0.156 C 
ATOM     13  C2  IDU d1623      66.152  43.697  33.266  0.00  0.00     0.228 C 
BRANCH  10  14
ATOM     14  C6  IDU d1623      65.131  39.698  32.249  0.00  0.00     0.170 C 
ATOM     15  O62 IDU d1623      64.070  39.941  31.653  0.00  0.00    -0.648 OA
BRANCH  14  16
ATOM     16  O61 IDU d1623      65.627  38.558  32.360  0.00  0.00    -0.774 OA
ENDBRANCH  14  16
ENDBRANCH  10  14
BRANCH  12  18
ATOM     18  O3  IDU d1623      68.234  42.494  33.139  0.00  0.00    -0.393 OA
ATOM     19  H   IDU d1623      69.064  42.773  32.721  0.00  0.00     0.210 HD
ENDBRANCH  12  18
BRANCH  13  20
ATOM     20  O2  IDU d1623      65.035  44.090  32.503  0.00  0.00    -0.244 OA
BRANCH  20  21
ATOM     21  S   IDU d1623      64.652  45.778  32.425  0.00  0.00     0.252 S 
ATOM     22  O3S IDU d1623      63.600  46.093  33.317  0.00  0.00    -0.572 OA
ATOM     23  O1S IDU d1623      64.350  46.068  31.056  0.00  0.00    -0.572 OA
ATOM     24  O2S IDU d1623      65.788  46.586  32.842  0.00  0.00    -0.572 OA
ENDBRANCH  20  21
ENDBRANCH  13  20
ENDBRANCH   7   8
ENDBRANCH   4   7
BRANCH   3  25
ATOM     25  C6  SGN d5702      61.948  43.347  35.479  0.00  0.00     0.227 C 
BRANCH  25  26
ATOM     26  O6  SGN d5702      61.063  42.347  35.962  0.00  0.00    -0.254 OA
BRANCH  26  27
ATOM     27  S2  SGN d5702      61.278  40.717  35.421  0.00  0.00     0.251 S 
ATOM     28  O4S SGN d5702      62.350  40.618  34.484  0.00  0.00    -0.572 OA
ATOM     29  O5S SGN d5702      60.062  40.282  34.795  0.00  0.00    -0.572 OA
ATOM     30  O6S SGN d5702      61.606  39.969  36.600  0.00  0.00    -0.572 OA
ENDBRANCH  26  27
ENDBRANCH  25  26
ENDBRANCH   3  25
BRANCH   5  31
ATOM     31  O3  SGN d5702      66.296  42.612  37.703  0.00  0.00    -0.391 OA
ATOM     32  H   SGN d5702      66.945  43.133  38.201  0.00  0.00     0.210 HD
ENDBRANCH   5  31
BRANCH   2  33
ATOM     33  N   SGN d5702      64.938  42.799  40.146  0.00  0.00    -0.189 NA
ATOM     34  H   SGN d5702      64.251  43.017  40.868  0.00  0.00     0.143 HD
BRANCH  33  35
ATOM     35  S1  SGN d5702      65.842  41.362  40.633  0.00  0.00     0.183 S 
ATOM     36  O1S SGN d5702      67.258  41.649  40.515  0.00  0.00    -0.582 OA
ATOM     37  O2S SGN d5702      65.541  40.301  39.728  0.00  0.00    -0.582 OA
ATOM     38  O3S SGN d5702      65.412  41.085  41.991  0.00  0.00    -0.582 OA
ENDBRANCH  33  35
ENDBRANCH   2  33
BRANCH   6  39
ATOM     39  O1  SGN d5702      62.968  44.613  39.398  0.00  0.00    -0.369 OA
ATOM     40  H   SGN d5702      62.090  44.923  39.670  0.00  0.00     0.212 HD
ENDBRANCH   6  39
TORSDOF 14
ENDMDL
MODEL 25
REMARK VINA RESULT:      -3.9      3.013      6.833
REMARK  14 active torsions:
REMARK  status: ('A' for Active; 'I' for Inactive)
REMARK    1  A    between atoms: C5_1  and  C6_23 
REMARK    2  A    between atoms: S2_5  and  O6_7 
REMARK    3  A    between atoms: O1_6  and  C1_35 
REMARK    4  A    between atoms: O6_7  and  C6_21 
REMARK    5  A    between atoms: O2_9  and  C2_28 
REMARK    6  A    between atoms: O2_9  and  S_13 
REMARK    7  A    between atoms: C3_10  and  O3_20 
REMARK    8  A    between atoms: C1_11  and  O4_12 
REMARK    9  A    between atoms: O4_12  and  C4_19 
REMARK   10  A    between atoms: C2_15  and  N_29 
REMARK   11  A    between atoms: C5_17  and  C6_21 
REMARK   12  A    between atoms: C6_23  and  O61_33 
REMARK   13  A    between atoms: O3_24  and  C3_26 
REMARK   14  A    between atoms: S1_27  and  N_29 
ROOT
ATOM      1  O5  SGN d5702      64.861  42.714  31.943  0.00  0.00    -0.350 OA
ATOM      2  C2  SGN d5702      65.629  40.526  32.562  0.00  0.00     0.160 C 
ATOM      3  C5  SGN d5702      63.963  42.789  33.023  0.00  0.00     0.181 C 
ATOM      4  C4  SGN d5702      64.498  41.928  34.185  0.00  0.00     0.186 C 
ATOM      5  C3  SGN d5702      64.613  40.467  33.672  0.00  0.00     0.173 C 
ATOM      6  C1  SGN d5702      65.126  41.405  31.432  0.00  0.00     0.278 C 
ENDROOT
BRANCH   4   7
ATOM      7  O4  SGN d5702      63.536  42.062  35.266  0.00  0.00    -0.348 OA
BRANCH   7   8
ATOM      8  C1  IDU d1623      63.830  42.123  36.647  0.00  0.00     0.294 C 
ATOM      9  O5  IDU d1623      64.662  43.270  37.016  0.00  0.00    -0.343 OA
ATOM     10  C5  IDU d1623      65.081  43.272  38.427  0.00  0.00     0.224 C 
ATOM     11  C4  IDU d1623      63.827  43.332  39.316  0.00  0.00     0.077 C 
ATOM     12  C3  IDU d1623      62.909  42.142  38.994  0.00  0.00     0.156 C 
ATOM     13  C2  IDU d1623      62.555  42.214  37.500  0.00  0.00     0.228 C 
BRANCH  10  14
ATOM     14  C6  IDU d1623      65.940  44.466  38.744  0.00  0.00     0.170 C 
ATOM     15  O62 IDU d1623      66.941  44.670  38.040  0.00  0.00    -0.648 OA
BRANCH  14  16
ATOM     16  O61 IDU d1623      65.597  45.190  39.701  0.00  0.00    -0.774 OA
ENDBRANCH  14  16
ENDBRANCH  10  14
BRANCH  12  18
ATOM     18  O3  IDU d1623      63.580  40.945  39.272  0.00  0.00    -0.393 OA
ATOM     19  H   IDU d1623      64.499  41.012  38.968  0.00  0.00     0.210 HD
ENDBRANCH  12  18
BRANCH  13  20
ATOM     20  O2  IDU d1623      61.940  43.448  37.215  0.00  0.00    -0.244 OA
BRANCH  20  21
ATOM     21  S   IDU d1623      60.482  43.438  36.280  0.00  0.00     0.252 S 
ATOM     22  O3S IDU d1623      60.743  43.819  34.943  0.00  0.00    -0.572 OA
ATOM     23  O1S IDU d1623      59.556  44.300  36.952  0.00  0.00    -0.572 OA
ATOM     24  O2S IDU d1623      59.920  42.098  36.213  0.00  0.00    -0.572 OA
ENDBRANCH  20  21
ENDBRANCH  13  20
ENDBRANCH   7   8
ENDBRANCH   4   7
BRANCH   3  25
ATOM     25  C6  SGN d5702      63.842  44.233  33.399  0.00  0.00     0.227 C 
BRANCH  25  26
ATOM     26  O6  SGN d5702      63.815  44.897  32.144  0.00  0.00    -0.254 OA
BRANCH  26  27
ATOM     27  S2  SGN d5702      64.731  46.354  31.957  0.00  0.00     0.251 S 
ATOM     28  O4S SGN d5702      64.315  47.085  30.804  0.00  0.00    -0.572 OA
ATOM     29  O5S SGN d5702      66.116  46.004  31.818  0.00  0.00    -0.572 OA
ATOM     30  O6S SGN d5702      64.459  47.125  33.134  0.00  0.00    -0.572 OA
ENDBRANCH  26  27
ENDBRANCH  25  26
ENDBRANCH   3  25
BRANCH   5  31
ATOM     31  O3  SGN d5702      65.111  39.639  34.695  0.00  0.00    -0.391 OA
ATOM     32  H   SGN d5702      65.848  40.085  35.141  0.00  0.00     0.210 HD
ENDBRANCH   5  31
BRANCH   2  33
ATOM     33  N   SGN d5702      65.852  39.223  32.026  0.00  0.00    -0.189 NA
ATOM     34  H   SGN d5702      65.645  39.239  31.027  0.00  0.00     0.143 HD
BRANCH  33  35
ATOM     35  S1  SGN d5702      67.520  38.690  32.256  0.00  0.00     0.183 S 
ATOM     36  O1S SGN d5702      67.756  38.519  33.675  0.00  0.00    -0.582 OA
ATOM     37  O2S SGN d5702      68.397  39.716  31.796  0.00  0.00    -0.582 OA
ATOM     38  O3S SGN d5702      67.635  37.463  31.491  0.00  0.00    -0.582 OA
ENDBRANCH  33  35
ENDBRANCH   2  33
BRANCH   6  39
ATOM     39  O1  SGN d5702      63.981  40.879  30.804  0.00  0.00    -0.369 OA
ATOM     40  H   SGN d5702      63.188  41.284  31.188  0.00  0.00     0.212 HD
ENDBRANCH   6  39
TORSDOF 14
ENDMDL
MODEL 26
REMARK VINA RESULT:      -3.9      3.266      5.670
REMARK  14 active torsions:
REMARK  status: ('A' for Active; 'I' for Inactive)
REMARK    1  A    between atoms: C5_1  and  C6_23 
REMARK    2  A    between atoms: S2_5  and  O6_7 
REMARK    3  A    between atoms: O1_6  and  C1_35 
REMARK    4  A    between atoms: O6_7  and  C6_21 
REMARK    5  A    between atoms: O2_9  and  C2_28 
REMARK    6  A    between atoms: O2_9  and  S_13 
REMARK    7  A    between atoms: C3_10  and  O3_20 
REMARK    8  A    between atoms: C1_11  and  O4_12 
REMARK    9  A    between atoms: O4_12  and  C4_19 
REMARK   10  A    between atoms: C2_15  and  N_29 
REMARK   11  A    between atoms: C5_17  and  C6_21 
REMARK   12  A    between atoms: C6_23  and  O61_33 
REMARK   13  A    between atoms: O3_24  and  C3_26 
REMARK   14  A    between atoms: S1_27  and  N_29 
ROOT
ATOM      1  O5  SGN d5702      61.685  40.485  36.519  0.00  0.00    -0.350 OA
ATOM      2  C2  SGN d5702      62.907  39.334  38.235  0.00  0.00     0.160 C 
ATOM      3  C5  SGN d5702      61.769  41.723  37.183  0.00  0.00     0.181 C 
ATOM      4  C4  SGN d5702      63.046  41.746  38.047  0.00  0.00     0.186 C 
ATOM      5  C3  SGN d5702      62.941  40.585  39.072  0.00  0.00     0.173 C 
ATOM      6  C1  SGN d5702      61.673  39.323  37.352  0.00  0.00     0.278 C 
ENDROOT
BRANCH   4   7
ATOM      7  O4  SGN d5702      63.079  43.051  38.689  0.00  0.00    -0.348 OA
BRANCH   7   8
ATOM      8  C1  IDU d1623      64.187  43.925  38.754  0.00  0.00     0.294 C 
ATOM      9  O5  IDU d1623      64.643  44.388  37.442  0.00  0.00    -0.343 OA
ATOM     10  C5  IDU d1623      65.873  45.195  37.490  0.00  0.00     0.224 C 
ATOM     11  C4  IDU d1623      65.609  46.452  38.335  0.00  0.00     0.077 C 
ATOM     12  C3  IDU d1623      65.139  46.041  39.739  0.00  0.00     0.156 C 
ATOM     13  C2  IDU d1623      63.874  45.184  39.578  0.00  0.00     0.228 C 
BRANCH  10  14
ATOM     14  C6  IDU d1623      66.298  45.632  36.115  0.00  0.00     0.170 C 
ATOM     15  O62 IDU d1623      66.945  44.834  35.420  0.00  0.00    -0.648 OA
BRANCH  14  16
ATOM     16  O61 IDU d1623      65.976  46.780  35.746  0.00  0.00    -0.774 OA
ENDBRANCH  14  16
ENDBRANCH  10  14
BRANCH  12  18
ATOM     18  O3  IDU d1623      66.146  45.299  40.371  0.00  0.00    -0.393 OA
ATOM     19  H   IDU d1623      67.013  45.589  40.046  0.00  0.00     0.210 HD
ENDBRANCH  12  18
BRANCH  13  20
ATOM     20  O2  IDU d1623      62.890  45.913  38.884  0.00  0.00    -0.244 OA
BRANCH  20  21
ATOM     21  S   IDU d1623      61.257  45.831  39.457  0.00  0.00     0.252 S 
ATOM     22  O3S IDU d1623      60.774  47.123  39.775  0.00  0.00    -0.572 OA
ATOM     23  O1S IDU d1623      61.254  44.927  40.567  0.00  0.00    -0.572 OA
ATOM     24  O2S IDU d1623      60.372  45.316  38.423  0.00  0.00    -0.572 OA
ENDBRANCH  20  21
ENDBRANCH  13  20
ENDBRANCH   7   8
ENDBRANCH   4   7
BRANCH   3  25
ATOM     25  C6  SGN d5702      61.778  42.789  36.132  0.00  0.00     0.227 C 
BRANCH  25  26
ATOM     26  O6  SGN d5702      62.253  42.109  34.979  0.00  0.00    -0.254 OA
BRANCH  26  27
ATOM     27  S2  SGN d5702      63.699  42.680  34.218  0.00  0.00     0.251 S 
ATOM     28  O4S SGN d5702      64.863  42.235  34.914  0.00  0.00    -0.572 OA
ATOM     29  O5S SGN d5702      63.674  44.115  34.212  0.00  0.00    -0.572 OA
ATOM     30  O6S SGN d5702      63.684  42.109  32.903  0.00  0.00    -0.572 OA
ENDBRANCH  26  27
ENDBRANCH  25  26
ENDBRANCH   3  25
BRANCH   5  31
ATOM     31  O3  SGN d5702      64.093  40.555  39.879  0.00  0.00    -0.391 OA
ATOM     32  H   SGN d5702      63.844  40.334  40.790  0.00  0.00     0.210 HD
ENDBRANCH   5  31
BRANCH   2  33
ATOM     33  N   SGN d5702      62.846  38.181  39.072  0.00  0.00    -0.189 NA
ATOM     34  H   SGN d5702      61.942  37.726  38.941  0.00  0.00     0.143 HD
BRANCH  33  35
ATOM     35  S1  SGN d5702      64.126  37.023  38.697  0.00  0.00     0.183 S 
ATOM     36  O1S SGN d5702      64.911  37.547  37.596  0.00  0.00    -0.582 OA
ATOM     37  O2S SGN d5702      63.529  35.805  38.257  0.00  0.00    -0.582 OA
ATOM     38  O3S SGN d5702      64.875  36.873  39.930  0.00  0.00    -0.582 OA
ENDBRANCH  33  35
ENDBRANCH   2  33
BRANCH   6  39
ATOM     39  O1  SGN d5702      60.477  39.258  38.093  0.00  0.00    -0.369 OA
ATOM     40  H   SGN d5702      59.813  39.835  37.684  0.00  0.00     0.212 HD
ENDBRANCH   6  39
TORSDOF 14
ENDMDL
MODEL 27
REMARK VINA RESULT:      -3.9      3.905      6.535
REMARK  14 active torsions:
REMARK  status: ('A' for Active; 'I' for Inactive)
REMARK    1  A    between atoms: C5_1  and  C6_23 
REMARK    2  A    between atoms: S2_5  and  O6_7 
REMARK    3  A    between atoms: O1_6  and  C1_35 
REMARK    4  A    between atoms: O6_7  and  C6_21 
REMARK    5  A    between atoms: O2_9  and  C2_28 
REMARK    6  A    between atoms: O2_9  and  S_13 
REMARK    7  A    between atoms: C3_10  and  O3_20 
REMARK    8  A    between atoms: C1_11  and  O4_12 
REMARK    9  A    between atoms: O4_12  and  C4_19 
REMARK   10  A    between atoms: C2_15  and  N_29 
REMARK   11  A    between atoms: C5_17  and  C6_21 
REMARK   12  A    between atoms: C6_23  and  O61_33 
REMARK   13  A    between atoms: O3_24  and  C3_26 
REMARK   14  A    between atoms: S1_27  and  N_29 
ROOT
ATOM      1  O5  SGN d5702      60.796  44.814  37.689  0.00  0.00    -0.350 OA
ATOM      2  C2  SGN d5702      61.377  44.879  40.017  0.00  0.00     0.160 C 
ATOM      3  C5  SGN d5702      62.026  44.238  37.319  0.00  0.00     0.181 C 
ATOM      4  C4  SGN d5702      62.571  43.412  38.502  0.00  0.00     0.186 C 
ATOM      5  C3  SGN d5702      62.761  44.378  39.702  0.00  0.00     0.173 C 
ATOM      6  C1  SGN d5702      60.817  45.660  38.842  0.00  0.00     0.278 C 
ENDROOT
BRANCH   4   7
ATOM      7  O4  SGN d5702      63.827  42.836  38.049  0.00  0.00    -0.348 OA
BRANCH   7   8
ATOM      8  C1  IDU d1623      64.455  41.682  38.570  0.00  0.00     0.294 C 
ATOM      9  O5  IDU d1623      63.669  40.460  38.393  0.00  0.00    -0.343 OA
ATOM     10  C5  IDU d1623      64.255  39.276  39.044  0.00  0.00     0.224 C 
ATOM     11  C4  IDU d1623      65.638  39.006  38.429  0.00  0.00     0.077 C 
ATOM     12  C3  IDU d1623      66.528  40.247  38.594  0.00  0.00     0.156 C 
ATOM     13  C2  IDU d1623      65.819  41.426  37.909  0.00  0.00     0.228 C 
BRANCH  10  14
ATOM     14  C6  IDU d1623      63.400  38.056  38.836  0.00  0.00     0.170 C 
ATOM     15  O62 IDU d1623      62.633  37.715  39.750  0.00  0.00    -0.648 OA
BRANCH  14  16
ATOM     16  O61 IDU d1623      63.509  37.449  37.751  0.00  0.00    -0.774 OA
ENDBRANCH  14  16
ENDBRANCH  10  14
BRANCH  12  18
ATOM     18  O3  IDU d1623      66.705  40.518  39.956  0.00  0.00    -0.393 OA
ATOM     19  H   IDU d1623      65.839  40.623  40.380  0.00  0.00     0.210 HD
ENDBRANCH  12  18
BRANCH  13  20
ATOM     20  O2  IDU d1623      65.584  41.120  36.555  0.00  0.00    -0.244 OA
BRANCH  20  21
ATOM     21  S   IDU d1623      66.091  42.266  35.358  0.00  0.00     0.252 S 
ATOM     22  O3S IDU d1623      64.979  42.761  34.638  0.00  0.00    -0.572 OA
ATOM     23  O1S IDU d1623      67.058  41.602  34.536  0.00  0.00    -0.572 OA
ATOM     24  O2S IDU d1623      66.713  43.424  35.982  0.00  0.00    -0.572 OA
ENDBRANCH  20  21
ENDBRANCH  13  20
ENDBRANCH   7   8
ENDBRANCH   4   7
BRANCH   3  25
ATOM     25  C6  SGN d5702      61.773  43.394  36.109  0.00  0.00     0.227 C 
BRANCH  25  26
ATOM     26  O6  SGN d5702      61.011  42.310  36.618  0.00  0.00    -0.254 OA
BRANCH  26  27
ATOM     27  S2  SGN d5702      61.188  40.754  35.880  0.00  0.00     0.251 S 
ATOM     28  O4S SGN d5702      62.509  40.566  35.374  0.00  0.00    -0.572 OA
ATOM     29  O5S SGN d5702      60.250  40.656  34.798  0.00  0.00    -0.572 OA
ATOM     30  O6S SGN d5702      60.941  39.809  36.929  0.00  0.00    -0.572 OA
ENDBRANCH  26  27
ENDBRANCH  25  26
ENDBRANCH   3  25
BRANCH   5  31
ATOM     31  O3  SGN d5702      63.247  43.668  40.815  0.00  0.00    -0.391 OA
ATOM     32  H   SGN d5702      62.556  43.619  41.494  0.00  0.00     0.210 HD
ENDBRANCH   5  31
BRANCH   2  33
ATOM     33  N   SGN d5702      61.413  45.760  41.138  0.00  0.00    -0.189 NA
ATOM     34  H   SGN d5702      60.939  46.629  40.890  0.00  0.00     0.143 HD
BRANCH  33  35
ATOM     35  S1  SGN d5702      60.619  45.061  42.553  0.00  0.00     0.183 S 
ATOM     36  O1S SGN d5702      61.396  45.400  43.729  0.00  0.00    -0.582 OA
ATOM     37  O2S SGN d5702      60.626  43.640  42.429  0.00  0.00    -0.582 OA
ATOM     38  O3S SGN d5702      59.281  45.622  42.554  0.00  0.00    -0.582 OA
ENDBRANCH  33  35
ENDBRANCH   2  33
BRANCH   6  39
ATOM     39  O1  SGN d5702      61.542  46.837  38.579  0.00  0.00    -0.369 OA
ATOM     40  H   SGN d5702      61.734  47.292  39.414  0.00  0.00     0.212 HD
ENDBRANCH   6  39
TORSDOF 14
ENDMDL
MODEL 28
REMARK VINA RESULT:      -3.8      3.808      8.281
REMARK  14 active torsions:
REMARK  status: ('A' for Active; 'I' for Inactive)
REMARK    1  A    between atoms: C5_1  and  C6_23 
REMARK    2  A    between atoms: S2_5  and  O6_7 
REMARK    3  A    between atoms: O1_6  and  C1_35 
REMARK    4  A    between atoms: O6_7  and  C6_21 
REMARK    5  A    between atoms: O2_9  and  C2_28 
REMARK    6  A    between atoms: O2_9  and  S_13 
REMARK    7  A    between atoms: C3_10  and  O3_20 
REMARK    8  A    between atoms: C1_11  and  O4_12 
REMARK    9  A    between atoms: O4_12  and  C4_19 
REMARK   10  A    between atoms: C2_15  and  N_29 
REMARK   11  A    between atoms: C5_17  and  C6_21 
REMARK   12  A    between atoms: C6_23  and  O61_33 
REMARK   13  A    between atoms: O3_24  and  C3_26 
REMARK   14  A    between atoms: S1_27  and  N_29 
ROOT
ATOM      1  O5  SGN d5702      63.253  42.225  33.266  0.00  0.00    -0.350 OA
ATOM      2  C2  SGN d5702      64.475  44.216  32.715  0.00  0.00     0.160 C 
ATOM      3  C5  SGN d5702      63.647  42.264  34.616  0.00  0.00     0.181 C 
ATOM      4  C4  SGN d5702      63.912  43.728  35.021  0.00  0.00     0.186 C 
ATOM      5  C3  SGN d5702      65.043  44.271  34.108  0.00  0.00     0.173 C 
ATOM      6  C1  SGN d5702      64.175  42.781  32.324  0.00  0.00     0.278 C 
ENDROOT
BRANCH   4   7
ATOM      7  O4  SGN d5702      64.296  43.698  36.423  0.00  0.00    -0.348 OA
BRANCH   7   8
ATOM      8  C1  IDU d1623      63.959  44.657  37.405  0.00  0.00     0.294 C 
ATOM      9  O5  IDU d1623      62.534  44.675  37.738  0.00  0.00    -0.343 OA
ATOM     10  C5  IDU d1623      62.152  45.754  38.663  0.00  0.00     0.224 C 
ATOM     11  C4  IDU d1623      62.912  45.565  39.986  0.00  0.00     0.077 C 
ATOM     12  C3  IDU d1623      64.425  45.552  39.716  0.00  0.00     0.156 C 
ATOM     13  C2  IDU d1623      64.713  44.415  38.723  0.00  0.00     0.228 C 
BRANCH  10  14
ATOM     14  C6  IDU d1623      60.677  45.729  38.959  0.00  0.00     0.170 C 
ATOM     15  O62 IDU d1623      59.909  45.331  38.071  0.00  0.00    -0.648 OA
BRANCH  14  16
ATOM     16  O61 IDU d1623      60.305  46.113  40.087  0.00  0.00    -0.774 OA
ENDBRANCH  14  16
ENDBRANCH  10  14
BRANCH  12  18
ATOM     18  O3  IDU d1623      64.812  46.780  39.167  0.00  0.00    -0.393 OA
ATOM     19  H   IDU d1623      65.100  46.648  38.250  0.00  0.00     0.210 HD
ENDBRANCH  12  18
BRANCH  13  20
ATOM     20  O2  IDU d1623      64.261  43.192  39.253  0.00  0.00    -0.244 OA
BRANCH  20  21
ATOM     21  S   IDU d1623      65.405  41.902  39.423  0.00  0.00     0.252 S 
ATOM     22  O3S IDU d1623      65.686  41.315  38.167  0.00  0.00    -0.572 OA
ATOM     23  O1S IDU d1623      64.854  40.985  40.376  0.00  0.00    -0.572 OA
ATOM     24  O2S IDU d1623      66.676  42.401  39.925  0.00  0.00    -0.572 OA
ENDBRANCH  20  21
ENDBRANCH  13  20
ENDBRANCH   7   8
ENDBRANCH   4   7
BRANCH   3  25
ATOM     25  C6  SGN d5702      62.543  41.647  35.416  0.00  0.00     0.227 C 
BRANCH  25  26
ATOM     26  O6  SGN d5702      63.170  40.534  36.037  0.00  0.00    -0.254 OA
BRANCH  26  27
ATOM     27  S2  SGN d5702      62.426  39.838  37.436  0.00  0.00     0.251 S 
ATOM     28  O4S SGN d5702      62.166  40.825  38.433  0.00  0.00    -0.572 OA
ATOM     29  O5S SGN d5702      63.312  38.846  37.976  0.00  0.00    -0.572 OA
ATOM     30  O6S SGN d5702      61.184  39.293  36.971  0.00  0.00    -0.572 OA
ENDBRANCH  26  27
ENDBRANCH  25  26
ENDBRANCH   3  25
BRANCH   5  31
ATOM     31  O3  SGN d5702      65.315  45.614  34.430  0.00  0.00    -0.391 OA
ATOM     32  H   SGN d5702      65.628  46.079  33.639  0.00  0.00     0.210 HD
ENDBRANCH   5  31
BRANCH   2  33
ATOM     33  N   SGN d5702      65.419  44.728  31.776  0.00  0.00    -0.189 NA
ATOM     34  H   SGN d5702      65.590  44.019  31.061  0.00  0.00     0.143 HD
BRANCH  33  35
ATOM     35  S1  SGN d5702      64.838  46.200  30.991  0.00  0.00     0.183 S 
ATOM     36  O1S SGN d5702      65.986  46.993  30.597  0.00  0.00    -0.582 OA
ATOM     37  O2S SGN d5702      64.094  46.963  31.940  0.00  0.00    -0.582 OA
ATOM     38  O3S SGN d5702      64.032  45.744  29.876  0.00  0.00    -0.582 OA
ENDBRANCH  33  35
ENDBRANCH   2  33
BRANCH   6  39
ATOM     39  O1  SGN d5702      65.334  41.988  32.239  0.00  0.00    -0.369 OA
ATOM     40  H   SGN d5702      65.283  41.270  32.890  0.00  0.00     0.212 HD
ENDBRANCH   6  39
TORSDOF 14
ENDMDL
MODEL 29
REMARK VINA RESULT:      -3.8      3.710      8.387
REMARK  14 active torsions:
REMARK  status: ('A' for Active; 'I' for Inactive)
REMARK    1  A    between atoms: C5_1  and  C6_23 
REMARK    2  A    between atoms: S2_5  and  O6_7 
REMARK    3  A    between atoms: O1_6  and  C1_35 
REMARK    4  A    between atoms: O6_7  and  C6_21 
REMARK    5  A    between atoms: O2_9  and  C2_28 
REMARK    6  A    between atoms: O2_9  and  S_13 
REMARK    7  A    between atoms: C3_10  and  O3_20 
REMARK    8  A    between atoms: C1_11  and  O4_12 
REMARK    9  A    between atoms: O4_12  and  C4_19 
REMARK   10  A    between atoms: C2_15  and  N_29 
REMARK   11  A    between atoms: C5_17  and  C6_21 
REMARK   12  A    between atoms: C6_23  and  O61_33 
REMARK   13  A    between atoms: O3_24  and  C3_26 
REMARK   14  A    between atoms: S1_27  and  N_29 
ROOT
ATOM      1  O5  SGN d5702      65.182  41.429  38.131  0.00  0.00    -0.350 OA
ATOM      2  C2  SGN d5702      62.894  41.831  37.524  0.00  0.00     0.160 C 
ATOM      3  C5  SGN d5702      64.863  40.274  38.869  0.00  0.00     0.181 C 
ATOM      4  C4  SGN d5702      63.589  39.636  38.281  0.00  0.00     0.186 C 
ATOM      5  C3  SGN d5702      62.447  40.682  38.388  0.00  0.00     0.173 C 
ATOM      6  C1  SGN d5702      64.171  42.439  38.074  0.00  0.00     0.278 C 
ENDROOT
BRANCH   4   7
ATOM      7  O4  SGN d5702      63.326  38.446  39.075  0.00  0.00    -0.348 OA
BRANCH   7   8
ATOM      8  C1  IDU d1623      62.983  37.168  38.581  0.00  0.00     0.294 C 
ATOM      9  O5  IDU d1623      64.107  36.457  37.968  0.00  0.00    -0.343 OA
ATOM     10  C5  IDU d1623      63.731  35.182  37.337  0.00  0.00     0.224 C 
ATOM     11  C4  IDU d1623      63.152  34.248  38.413  0.00  0.00     0.077 C 
ATOM     12  C3  IDU d1623      61.952  34.925  39.092  0.00  0.00     0.156 C 
ATOM     13  C2  IDU d1623      62.439  36.253  39.690  0.00  0.00     0.228 C 
BRANCH  10  14
ATOM     14  C6  IDU d1623      64.923  34.504  36.717  0.00  0.00     0.170 C 
ATOM     15  O62 IDU d1623      65.523  33.648  37.384  0.00  0.00    -0.648 OA
BRANCH  14  16
ATOM     16  O61 IDU d1623      65.245  34.842  35.559  0.00  0.00    -0.774 OA
ENDBRANCH  14  16
ENDBRANCH  10  14
BRANCH  12  18
ATOM     18  O3  IDU d1623      60.951  35.164  38.142  0.00  0.00    -0.393 OA
ATOM     19  H   IDU d1623      60.123  35.390  38.595  0.00  0.00     0.210 HD
ENDBRANCH  12  18
BRANCH  13  20
ATOM     20  O2  IDU d1623      63.490  36.011  40.595  0.00  0.00    -0.244 OA
BRANCH  20  21
ATOM     21  S   IDU d1623      63.086  35.630  42.236  0.00  0.00     0.252 S 
ATOM     22  O3S IDU d1623      63.270  34.250  42.489  0.00  0.00    -0.572 OA
ATOM     23  O1S IDU d1623      61.741  36.078  42.443  0.00  0.00    -0.572 OA
ATOM     24  O2S IDU d1623      63.966  36.328  43.161  0.00  0.00    -0.572 OA
ENDBRANCH  20  21
ENDBRANCH  13  20
ENDBRANCH   7   8
ENDBRANCH   4   7
BRANCH   3  25
ATOM     25  C6  SGN d5702      66.044  39.357  38.787  0.00  0.00     0.227 C 
BRANCH  25  26
ATOM     26  O6  SGN d5702      66.647  39.709  37.551  0.00  0.00    -0.254 OA
BRANCH  26  27
ATOM     27  S2  SGN d5702      66.785  38.498  36.321  0.00  0.00     0.251 S 
ATOM     28  O4S SGN d5702      65.538  38.286  35.659  0.00  0.00    -0.572 OA
ATOM     29  O5S SGN d5702      67.207  37.272  36.936  0.00  0.00    -0.572 OA
ATOM     30  O6S SGN d5702      67.738  39.018  35.385  0.00  0.00    -0.572 OA
ENDBRANCH  26  27
ENDBRANCH  25  26
ENDBRANCH   3  25
BRANCH   5  31
ATOM     31  O3  SGN d5702      61.260  40.151  37.851  0.00  0.00    -0.391 OA
ATOM     32  H   SGN d5702      60.576  40.838  37.837  0.00  0.00     0.210 HD
ENDBRANCH   5  31
BRANCH   2  33
ATOM     33  N   SGN d5702      61.903  42.856  37.512  0.00  0.00    -0.189 NA
ATOM     34  H   SGN d5702      62.340  43.741  37.767  0.00  0.00     0.143 HD
BRANCH  33  35
ATOM     35  S1  SGN d5702      61.151  43.029  35.922  0.00  0.00     0.183 S 
ATOM     36  O1S SGN d5702      61.021  41.712  35.330  0.00  0.00    -0.582 OA
ATOM     37  O2S SGN d5702      62.018  43.792  35.085  0.00  0.00    -0.582 OA
ATOM     38  O3S SGN d5702      59.883  43.687  36.171  0.00  0.00    -0.582 OA
ENDBRANCH  33  35
ENDBRANCH   2  33
BRANCH   6  39
ATOM     39  O1  SGN d5702      63.990  43.028  39.340  0.00  0.00    -0.369 OA
ATOM     40  H   SGN d5702      64.793  43.512  39.589  0.00  0.00     0.212 HD
ENDBRANCH   6  39
TORSDOF 14
ENDMDL
MODEL 30
REMARK VINA RESULT:      -3.8      3.760      5.740
REMARK  14 active torsions:
REMARK  status: ('A' for Active; 'I' for Inactive)
REMARK    1  A    between atoms: C5_1  and  C6_23 
REMARK    2  A    between atoms: S2_5  and  O6_7 
REMARK    3  A    between atoms: O1_6  and  C1_35 
REMARK    4  A    between atoms: O6_7  and  C6_21 
REMARK    5  A    between atoms: O2_9  and  C2_28 
REMARK    6  A    between atoms: O2_9  and  S_13 
REMARK    7  A    between atoms: C3_10  and  O3_20 
REMARK    8  A    between atoms: C1_11  and  O4_12 
REMARK    9  A    between atoms: O4_12  and  C4_19 
REMARK   10  A    between atoms: C2_15  and  N_29 
REMARK   11  A    between atoms: C5_17  and  C6_21 
REMARK   12  A    between atoms: C6_23  and  O61_33 
REMARK   13  A    between atoms: O3_24  and  C3_26 
REMARK   14  A    between atoms: S1_27  and  N_29 
ROOT
ATOM      1  O5  SGN d5702      62.735  39.809  36.966  0.00  0.00    -0.350 OA
ATOM      2  C2  SGN d5702      62.415  39.389  39.308  0.00  0.00     0.160 C 
ATOM      3  C5  SGN d5702      62.902  41.192  37.158  0.00  0.00     0.181 C 
ATOM      4  C4  SGN d5702      63.475  41.440  38.568  0.00  0.00     0.186 C 
ATOM      5  C3  SGN d5702      62.461  40.867  39.594  0.00  0.00     0.173 C 
ATOM      6  C1  SGN d5702      61.890  39.139  37.906  0.00  0.00     0.278 C 
ENDROOT
BRANCH   4   7
ATOM      7  O4  SGN d5702      63.637  42.879  38.694  0.00  0.00    -0.348 OA
BRANCH   7   8
ATOM      8  C1  IDU d1623      64.770  43.553  39.201  0.00  0.00     0.294 C 
ATOM      9  O5  IDU d1623      65.991  43.306  38.431  0.00  0.00    -0.343 OA
ATOM     10  C5  IDU d1623      67.200  43.899  39.024  0.00  0.00     0.224 C 
ATOM     11  C4  IDU d1623      67.022  45.424  39.091  0.00  0.00     0.077 C 
ATOM     12  C3  IDU d1623      65.763  45.763  39.903  0.00  0.00     0.156 C 
ATOM     13  C2  IDU d1623      64.568  45.077  39.222  0.00  0.00     0.228 C 
BRANCH  10  14
ATOM     14  C6  IDU d1623      68.421  43.602  38.196  0.00  0.00     0.170 C 
ATOM     15  O62 IDU d1623      68.273  42.960  37.145  0.00  0.00    -0.648 OA
BRANCH  14  16
ATOM     16  O61 IDU d1623      69.520  44.020  38.613  0.00  0.00    -0.774 OA
ENDBRANCH  14  16
ENDBRANCH  10  14
BRANCH  12  18
ATOM     18  O3  IDU d1623      65.908  45.286  41.212  0.00  0.00    -0.393 OA
ATOM     19  H   IDU d1623      66.809  44.948  41.334  0.00  0.00     0.210 HD
ENDBRANCH  12  18
BRANCH  13  20
ATOM     20  O2  IDU d1623      64.467  45.511  37.886  0.00  0.00    -0.244 OA
BRANCH  20  21
ATOM     21  S   IDU d1623      62.984  46.246  37.375  0.00  0.00     0.252 S 
ATOM     22  O3S IDU d1623      63.211  47.124  36.289  0.00  0.00    -0.572 OA
ATOM     23  O1S IDU d1623      62.424  46.888  38.526  0.00  0.00    -0.572 OA
ATOM     24  O2S IDU d1623      62.050  45.241  36.890  0.00  0.00    -0.572 OA
ENDBRANCH  20  21
ENDBRANCH  13  20
ENDBRANCH   7   8
ENDBRANCH   4   7
BRANCH   3  25
ATOM     25  C6  SGN d5702      63.821  41.680  36.081  0.00  0.00     0.227 C 
BRANCH  25  26
ATOM     26  O6  SGN d5702      62.979  42.488  35.272  0.00  0.00    -0.254 OA
BRANCH  26  27
ATOM     27  S2  SGN d5702      63.662  43.269  33.887  0.00  0.00     0.251 S 
ATOM     28  O4S SGN d5702      63.650  42.410  32.747  0.00  0.00    -0.572 OA
ATOM     29  O5S SGN d5702      65.017  43.631  34.192  0.00  0.00    -0.572 OA
ATOM     30  O6S SGN d5702      62.817  44.401  33.639  0.00  0.00    -0.572 OA
ENDBRANCH  26  27
ENDBRANCH  25  26
ENDBRANCH   3  25
BRANCH   5  31
ATOM     31  O3  SGN d5702      62.945  41.056  40.902  0.00  0.00    -0.391 OA
ATOM     32  H   SGN d5702      63.799  40.606  40.999  0.00  0.00     0.210 HD
ENDBRANCH   5  31
BRANCH   2  33
ATOM     33  N   SGN d5702      61.534  38.736  40.219  0.00  0.00    -0.189 NA
ATOM     34  H   SGN d5702      60.791  38.279  39.688  0.00  0.00     0.143 HD
BRANCH  33  35
ATOM     35  S1  SGN d5702      62.370  37.522  41.192  0.00  0.00     0.183 S 
ATOM     36  O1S SGN d5702      62.426  36.287  40.436  0.00  0.00    -0.582 OA
ATOM     37  O2S SGN d5702      61.605  37.271  42.369  0.00  0.00    -0.582 OA
ATOM     38  O3S SGN d5702      63.672  38.094  41.476  0.00  0.00    -0.582 OA
ENDBRANCH  33  35
ENDBRANCH   2  33
BRANCH   6  39
ATOM     39  O1  SGN d5702      60.553  39.548  37.747  0.00  0.00    -0.369 OA
ATOM     40  H   SGN d5702      60.484  40.135  36.978  0.00  0.00     0.212 HD
ENDBRANCH   6  39
TORSDOF 14
ENDMDL
MODEL 31
REMARK VINA RESULT:      -3.8      2.524      6.399
REMARK  14 active torsions:
REMARK  status: ('A' for Active; 'I' for Inactive)
REMARK    1  A    between atoms: C5_1  and  C6_23 
REMARK    2  A    between atoms: S2_5  and  O6_7 
REMARK    3  A    between atoms: O1_6  and  C1_35 
REMARK    4  A    between atoms: O6_7  and  C6_21 
REMARK    5  A    between atoms: O2_9  and  C2_28 
REMARK    6  A    between atoms: O2_9  and  S_13 
REMARK    7  A    between atoms: C3_10  and  O3_20 
REMARK    8  A    between atoms: C1_11  and  O4_12 
REMARK    9  A    between atoms: O4_12  and  C4_19 
REMARK   10  A    between atoms: C2_15  and  N_29 
REMARK   11  A    between atoms: C5_17  and  C6_21 
REMARK   12  A    between atoms: C6_23  and  O61_33 
REMARK   13  A    between atoms: O3_24  and  C3_26 
REMARK   14  A    between atoms: S1_27  and  N_29 
ROOT
ATOM      1  O5  SGN d5702      62.802  40.114  38.151  0.00  0.00    -0.350 OA
ATOM      2  C2  SGN d5702      61.676  41.587  36.626  0.00  0.00     0.160 C 
ATOM      3  C5  SGN d5702      63.567  39.518  37.132  0.00  0.00     0.181 C 
ATOM      4  C4  SGN d5702      63.766  40.535  35.991  0.00  0.00     0.186 C 
ATOM      5  C3  SGN d5702      62.361  40.925  35.459  0.00  0.00     0.173 C 
ATOM      6  C1  SGN d5702      61.513  40.602  37.769  0.00  0.00     0.278 C 
ENDROOT
BRANCH   4   7
ATOM      7  O4  SGN d5702      64.573  39.864  34.984  0.00  0.00    -0.348 OA
BRANCH   7   8
ATOM      8  C1  IDU d1623      65.642  40.430  34.254  0.00  0.00     0.294 C 
ATOM      9  O5  IDU d1623      66.833  40.687  35.067  0.00  0.00    -0.343 OA
ATOM     10  C5  IDU d1623      67.904  41.392  34.346  0.00  0.00     0.224 C 
ATOM     11  C4  IDU d1623      68.358  40.526  33.160  0.00  0.00     0.077 C 
ATOM     12  C3  IDU d1623      67.157  40.228  32.249  0.00  0.00     0.156 C 
ATOM     13  C2  IDU d1623      66.089  39.521  33.098  0.00  0.00     0.228 C 
BRANCH  10  14
ATOM     14  C6  IDU d1623      69.095  41.637  35.233  0.00  0.00     0.170 C 
ATOM     15  O62 IDU d1623      69.320  40.828  36.147  0.00  0.00    -0.648 OA
BRANCH  14  16
ATOM     16  O61 IDU d1623      69.793  42.645  35.002  0.00  0.00    -0.774 OA
ENDBRANCH  14  16
ENDBRANCH  10  14
BRANCH  12  18
ATOM     18  O3  IDU d1623      66.648  41.428  31.738  0.00  0.00    -0.393 OA
ATOM     19  H   IDU d1623      65.828  41.656  32.204  0.00  0.00     0.210 HD
ENDBRANCH  12  18
BRANCH  13  20
ATOM     20  O2  IDU d1623      66.628  38.349  33.663  0.00  0.00    -0.244 OA
BRANCH  20  21
ATOM     21  S   IDU d1623      66.336  36.844  32.855  0.00  0.00     0.252 S 
ATOM     22  O3S IDU d1623      67.549  36.285  32.388  0.00  0.00    -0.572 OA
ATOM     23  O1S IDU d1623      65.389  37.111  31.815  0.00  0.00    -0.572 OA
ATOM     24  O2S IDU d1623      65.771  35.866  33.772  0.00  0.00    -0.572 OA
ENDBRANCH  20  21
ENDBRANCH  13  20
ENDBRANCH   7   8
ENDBRANCH   4   7
BRANCH   3  25
ATOM     25  C6  SGN d5702      64.865  39.094  37.745  0.00  0.00     0.227 C 
BRANCH  25  26
ATOM     26  O6  SGN d5702      64.465  38.243  38.808  0.00  0.00    -0.254 OA
BRANCH  26  27
ATOM     27  S2  SGN d5702      64.024  36.610  38.440  0.00  0.00     0.251 S 
ATOM     28  O4S SGN d5702      64.477  36.229  37.141  0.00  0.00    -0.572 OA
ATOM     29  O5S SGN d5702      62.594  36.502  38.492  0.00  0.00    -0.572 OA
ATOM     30  O6S SGN d5702      64.687  35.809  39.428  0.00  0.00    -0.572 OA
ENDBRANCH  26  27
ENDBRANCH  25  26
ENDBRANCH   3  25
BRANCH   5  31
ATOM     31  O3  SGN d5702      62.487  41.866  34.420  0.00  0.00    -0.391 OA
ATOM     32  H   SGN d5702      63.307  42.371  34.539  0.00  0.00     0.210 HD
ENDBRANCH   5  31
BRANCH   2  33
ATOM     33  N   SGN d5702      60.373  42.027  36.250  0.00  0.00    -0.189 NA
ATOM     34  H   SGN d5702      59.703  41.710  36.952  0.00  0.00     0.143 HD
BRANCH  33  35
ATOM     35  S1  SGN d5702      60.280  43.786  36.126  0.00  0.00     0.183 S 
ATOM     36  O1S SGN d5702      61.623  44.324  36.212  0.00  0.00    -0.582 OA
ATOM     37  O2S SGN d5702      59.544  44.288  37.240  0.00  0.00    -0.582 OA
ATOM     38  O3S SGN d5702      59.628  44.044  34.856  0.00  0.00    -0.582 OA
ENDBRANCH  33  35
ENDBRANCH   2  33
BRANCH   6  39
ATOM     39  O1  SGN d5702      60.656  39.533  37.445  0.00  0.00    -0.369 OA
ATOM     40  H   SGN d5702      59.790  39.676  37.859  0.00  0.00     0.212 HD
ENDBRANCH   6  39
TORSDOF 14
ENDMDL
MODEL 32
REMARK VINA RESULT:      -3.8      3.048      6.343
REMARK  14 active torsions:
REMARK  status: ('A' for Active; 'I' for Inactive)
REMARK    1  A    between atoms: C5_1  and  C6_23 
REMARK    2  A    between atoms: S2_5  and  O6_7 
REMARK    3  A    between atoms: O1_6  and  C1_35 
REMARK    4  A    between atoms: O6_7  and  C6_21 
REMARK    5  A    between atoms: O2_9  and  C2_28 
REMARK    6  A    between atoms: O2_9  and  S_13 
REMARK    7  A    between atoms: C3_10  and  O3_20 
REMARK    8  A    between atoms: C1_11  and  O4_12 
REMARK    9  A    between atoms: O4_12  and  C4_19 
REMARK   10  A    between atoms: C2_15  and  N_29 
REMARK   11  A    between atoms: C5_17  and  C6_21 
REMARK   12  A    between atoms: C6_23  and  O61_33 
REMARK   13  A    between atoms: O3_24  and  C3_26 
REMARK   14  A    between atoms: S1_27  and  N_29 
ROOT
ATOM      1  O5  SGN d5702      64.787  41.915  37.211  0.00  0.00    -0.350 OA
ATOM      2  C2  SGN d5702      62.709  43.088  36.951  0.00  0.00     0.160 C 
ATOM      3  C5  SGN d5702      64.847  41.562  35.850  0.00  0.00     0.181 C 
ATOM      4  C4  SGN d5702      64.100  42.626  35.021  0.00  0.00     0.186 C 
ATOM      5  C3  SGN d5702      62.628  42.656  35.511  0.00  0.00     0.173 C 
ATOM      6  C1  SGN d5702      63.477  42.065  37.767  0.00  0.00     0.278 C 
ENDROOT
BRANCH   4   7
ATOM      7  O4  SGN d5702      64.214  42.211  33.631  0.00  0.00    -0.348 OA
BRANCH   7   8
ATOM      8  C1  IDU d1623      64.245  43.061  32.503  0.00  0.00     0.294 C 
ATOM      9  O5  IDU d1623      65.514  43.774  32.344  0.00  0.00    -0.343 OA
ATOM     10  C5  IDU d1623      65.511  44.756  31.248  0.00  0.00     0.224 C 
ATOM     11  C4  IDU d1623      65.249  44.020  29.923  0.00  0.00     0.077 C 
ATOM     12  C3  IDU d1623      63.917  43.258  30.011  0.00  0.00     0.156 C 
ATOM     13  C2  IDU d1623      64.011  42.285  31.197  0.00  0.00     0.228 C 
BRANCH  10  14
ATOM     14  C6  IDU d1623      66.835  45.462  31.140  0.00  0.00     0.170 C 
ATOM     15  O62 IDU d1623      67.724  45.168  31.954  0.00  0.00    -0.648 OA
BRANCH  14  16
ATOM     16  O61 IDU d1623      66.968  46.310  30.233  0.00  0.00    -0.774 OA
ENDBRANCH  14  16
ENDBRANCH  10  14
BRANCH  12  18
ATOM     18  O3  IDU d1623      62.871  44.167  30.217  0.00  0.00    -0.393 OA
ATOM     19  H   IDU d1623      63.141  44.826  30.875  0.00  0.00     0.210 HD
ENDBRANCH  12  18
BRANCH  13  20
ATOM     20  O2  IDU d1623      65.105  41.418  31.016  0.00  0.00    -0.244 OA
BRANCH  20  21
ATOM     21  S   IDU d1623      64.784  39.727  30.817  0.00  0.00     0.252 S 
ATOM     22  O3S IDU d1623      63.504  39.526  30.249  0.00  0.00    -0.572 OA
ATOM     23  O1S IDU d1623      64.941  39.123  32.106  0.00  0.00    -0.572 OA
ATOM     24  O2S IDU d1623      65.732  39.126  29.892  0.00  0.00    -0.572 OA
ENDBRANCH  20  21
ENDBRANCH  13  20
ENDBRANCH   7   8
ENDBRANCH   4   7
BRANCH   3  25
ATOM     25  C6  SGN d5702      66.294  41.471  35.481  0.00  0.00     0.227 C 
BRANCH  25  26
ATOM     26  O6  SGN d5702      66.456  40.107  35.121  0.00  0.00    -0.254 OA
BRANCH  26  27
ATOM     27  S2  SGN d5702      67.836  39.656  34.178  0.00  0.00     0.251 S 
ATOM     28  O4S SGN d5702      67.919  40.426  32.979  0.00  0.00    -0.572 OA
ATOM     29  O5S SGN d5702      67.720  38.266  33.839  0.00  0.00    -0.572 OA
ATOM     30  O6S SGN d5702      68.969  39.943  35.007  0.00  0.00    -0.572 OA
ENDBRANCH  26  27
ENDBRANCH  25  26
ENDBRANCH   3  25
BRANCH   5  31
ATOM     31  O3  SGN d5702      61.904  43.624  34.791  0.00  0.00    -0.391 OA
ATOM     32  H   SGN d5702      61.902  44.459  35.284  0.00  0.00     0.210 HD
ENDBRANCH   5  31
BRANCH   2  33
ATOM     33  N   SGN d5702      61.401  43.189  37.511  0.00  0.00    -0.189 NA
ATOM     34  H   SGN d5702      61.391  42.710  38.412  0.00  0.00     0.143 HD
BRANCH  33  35
ATOM     35  S1  SGN d5702      60.913  44.869  37.752  0.00  0.00     0.183 S 
ATOM     36  O1S SGN d5702      61.831  45.722  37.024  0.00  0.00    -0.582 OA
ATOM     37  O2S SGN d5702      61.034  45.189  39.136  0.00  0.00    -0.582 OA
ATOM     38  O3S SGN d5702      59.545  44.939  37.273  0.00  0.00    -0.582 OA
ENDBRANCH  33  35
ENDBRANCH   2  33
BRANCH   6  39
ATOM     39  O1  SGN d5702      62.822  40.821  37.831  0.00  0.00    -0.369 OA
ATOM     40  H   SGN d5702      62.441  40.611  36.965  0.00  0.00     0.212 HD
ENDBRANCH   6  39
TORSDOF 14
ENDMDL
MODEL 33
REMARK VINA RESULT:      -3.8      4.056      5.625
REMARK  14 active torsions:
REMARK  status: ('A' for Active; 'I' for Inactive)
REMARK    1  A    between atoms: C5_1  and  C6_23 
REMARK    2  A    between atoms: S2_5  and  O6_7 
REMARK    3  A    between atoms: O1_6  and  C1_35 
REMARK    4  A    between atoms: O6_7  and  C6_21 
REMARK    5  A    between atoms: O2_9  and  C2_28 
REMARK    6  A    between atoms: O2_9  and  S_13 
REMARK    7  A    between atoms: C3_10  and  O3_20 
REMARK    8  A    between atoms: C1_11  and  O4_12 
REMARK    9  A    between atoms: O4_12  and  C4_19 
REMARK   10  A    between atoms: C2_15  and  N_29 
REMARK   11  A    between atoms: C5_17  and  C6_21 
REMARK   12  A    between atoms: C6_23  and  O61_33 
REMARK   13  A    between atoms: O3_24  and  C3_26 
REMARK   14  A    between atoms: S1_27  and  N_29 
ROOT
ATOM      1  O5  SGN d5702      62.781  42.865  39.387  0.00  0.00    -0.350 OA
ATOM      2  C2  SGN d5702      64.002  44.761  40.210  0.00  0.00     0.160 C 
ATOM      3  C5  SGN d5702      63.089  43.153  38.044  0.00  0.00     0.181 C 
ATOM      4  C4  SGN d5702      64.435  43.902  37.985  0.00  0.00     0.186 C 
ATOM      5  C3  SGN d5702      64.279  45.213  38.800  0.00  0.00     0.173 C 
ATOM      6  C1  SGN d5702      62.698  43.988  40.269  0.00  0.00     0.278 C 
ENDROOT
BRANCH   4   7
ATOM      7  O4  SGN d5702      64.699  44.153  36.577  0.00  0.00    -0.348 OA
BRANCH   7   8
ATOM      8  C1  IDU d1623      65.939  44.003  35.918  0.00  0.00     0.294 C 
ATOM      9  O5  IDU d1623      66.376  42.610  35.802  0.00  0.00    -0.343 OA
ATOM     10  C5  IDU d1623      67.724  42.454  35.232  0.00  0.00     0.224 C 
ATOM     11  C4  IDU d1623      67.732  43.039  33.811  0.00  0.00     0.077 C 
ATOM     12  C3  IDU d1623      67.299  44.513  33.856  0.00  0.00     0.156 C 
ATOM     13  C2  IDU d1623      65.900  44.570  34.489  0.00  0.00     0.228 C 
BRANCH  10  14
ATOM     14  C6  IDU d1623      68.120  41.005  35.148  0.00  0.00     0.170 C 
ATOM     15  O62 IDU d1623      67.366  40.226  34.544  0.00  0.00    -0.648 OA
BRANCH  14  16
ATOM     16  O61 IDU d1623      69.189  40.663  35.693  0.00  0.00    -0.774 OA
ENDBRANCH  14  16
ENDBRANCH  10  14
BRANCH  12  18
ATOM     18  O3  IDU d1623      68.208  45.244  34.630  0.00  0.00    -0.393 OA
ATOM     19  H   IDU d1623      67.835  45.389  35.514  0.00  0.00     0.210 HD
ENDBRANCH  12  18
BRANCH  13  20
ATOM     20  O2  IDU d1623      65.006  43.779  33.743  0.00  0.00    -0.244 OA
BRANCH  20  21
ATOM     21  S   IDU d1623      63.536  44.509  33.188  0.00  0.00     0.252 S 
ATOM     22  O3S IDU d1623      62.479  44.253  34.093  0.00  0.00    -0.572 OA
ATOM     23  O1S IDU d1623      63.297  44.004  31.869  0.00  0.00    -0.572 OA
ATOM     24  O2S IDU d1623      63.669  45.956  33.125  0.00  0.00    -0.572 OA
ENDBRANCH  20  21
ENDBRANCH  13  20
ENDBRANCH   7   8
ENDBRANCH   4   7
BRANCH   3  25
ATOM     25  C6  SGN d5702      63.135  41.848  37.312  0.00  0.00     0.227 C 
BRANCH  25  26
ATOM     26  O6  SGN d5702      61.773  41.452  37.260  0.00  0.00    -0.254 OA
BRANCH  26  27
ATOM     27  S2  SGN d5702      61.093  41.020  35.727  0.00  0.00     0.251 S 
ATOM     28  O4S SGN d5702      62.084  41.025  34.700  0.00  0.00    -0.572 OA
ATOM     29  O5S SGN d5702      60.069  41.971  35.400  0.00  0.00    -0.572 OA
ATOM     30  O6S SGN d5702      60.593  39.687  35.899  0.00  0.00    -0.572 OA
ENDBRANCH  26  27
ENDBRANCH  25  26
ENDBRANCH   3  25
BRANCH   5  31
ATOM     31  O3  SGN d5702      65.490  45.930  38.788  0.00  0.00    -0.391 OA
ATOM     32  H   SGN d5702      66.006  45.708  39.579  0.00  0.00     0.210 HD
ENDBRANCH   5  31
BRANCH   2  33
ATOM     33  N   SGN d5702      63.873  45.888  41.074  0.00  0.00    -0.189 NA
ATOM     34  H   SGN d5702      62.952  45.862  41.513  0.00  0.00     0.143 HD
BRANCH  33  35
ATOM     35  S1  SGN d5702      65.107  45.897  42.338  0.00  0.00     0.183 S 
ATOM     36  O1S SGN d5702      64.976  47.124  43.097  0.00  0.00    -0.582 OA
ATOM     37  O2S SGN d5702      66.394  45.907  41.723  0.00  0.00    -0.582 OA
ATOM     38  O3S SGN d5702      64.862  44.698  43.117  0.00  0.00    -0.582 OA
ENDBRANCH  33  35
ENDBRANCH   2  33
BRANCH   6  39
ATOM     39  O1  SGN d5702      61.581  44.784  39.952  0.00  0.00    -0.369 OA
ATOM     40  H   SGN d5702      60.910  44.691  40.646  0.00  0.00     0.212 HD
ENDBRANCH   6  39
TORSDOF 14
ENDMDL
MODEL 34
REMARK VINA RESULT:      -3.8      3.897      6.849
REMARK  14 active torsions:
REMARK  status: ('A' for Active; 'I' for Inactive)
REMARK    1  A    between atoms: C5_1  and  C6_23 
REMARK    2  A    between atoms: S2_5  and  O6_7 
REMARK    3  A    between atoms: O1_6  and  C1_35 
REMARK    4  A    between atoms: O6_7  and  C6_21 
REMARK    5  A    between atoms: O2_9  and  C2_28 
REMARK    6  A    between atoms: O2_9  and  S_13 
REMARK    7  A    between atoms: C3_10  and  O3_20 
REMARK    8  A    between atoms: C1_11  and  O4_12 
REMARK    9  A    between atoms: O4_12  and  C4_19 
REMARK   10  A    between atoms: C2_15  and  N_29 
REMARK   11  A    between atoms: C5_17  and  C6_21 
REMARK   12  A    between atoms: C6_23  and  O61_33 
REMARK   13  A    between atoms: O3_24  and  C3_26 
REMARK   14  A    between atoms: S1_27  and  N_29 
ROOT
ATOM      1  O5  SGN d5702      63.471  38.489  37.615  0.00  0.00    -0.350 OA
ATOM      2  C2  SGN d5702      65.801  38.866  38.053  0.00  0.00     0.160 C 
ATOM      3  C5  SGN d5702      63.059  39.440  38.567  0.00  0.00     0.181 C 
ATOM      4  C4  SGN d5702      64.153  40.518  38.708  0.00  0.00     0.186 C 
ATOM      5  C3  SGN d5702      65.453  39.810  39.173  0.00  0.00     0.173 C 
ATOM      6  C1  SGN d5702      64.710  37.825  37.881  0.00  0.00     0.278 C 
ENDROOT
BRANCH   4   7
ATOM      7  O4  SGN d5702      63.659  41.471  39.689  0.00  0.00    -0.348 OA
BRANCH   7   8
ATOM      8  C1  IDU d1623      63.793  42.876  39.633  0.00  0.00     0.294 C 
ATOM      9  O5  IDU d1623      63.029  43.492  38.546  0.00  0.00    -0.343 OA
ATOM     10  C5  IDU d1623      63.262  44.938  38.399  0.00  0.00     0.224 C 
ATOM     11  C4  IDU d1623      62.832  45.643  39.695  0.00  0.00     0.077 C 
ATOM     12  C3  IDU d1623      63.609  45.057  40.885  0.00  0.00     0.156 C 
ATOM     13  C2  IDU d1623      63.323  43.548  40.933  0.00  0.00     0.228 C 
BRANCH  10  14
ATOM     14  C6  IDU d1623      62.460  45.511  37.262  0.00  0.00     0.170 C 
ATOM     15  O62 IDU d1623      62.979  46.401  36.570  0.00  0.00    -0.648 OA
BRANCH  14  16
ATOM     16  O61 IDU d1623      61.312  45.060  37.077  0.00  0.00    -0.774 OA
ENDBRANCH  14  16
ENDBRANCH  10  14
BRANCH  12  18
ATOM     18  O3  IDU d1623      64.979  45.281  40.704  0.00  0.00    -0.393 OA
ATOM     19  H   IDU d1623      65.153  46.236  40.701  0.00  0.00     0.210 HD
ENDBRANCH  12  18
BRANCH  13  20
ATOM     20  O2  IDU d1623      61.937  43.329  41.048  0.00  0.00    -0.244 OA
BRANCH  20  21
ATOM     21  S   IDU d1623      61.175  43.689  42.562  0.00  0.00     0.252 S 
ATOM     22  O3S IDU d1623      60.430  44.888  42.473  0.00  0.00    -0.572 OA
ATOM     23  O1S IDU d1623      62.214  43.730  43.546  0.00  0.00    -0.572 OA
ATOM     24  O2S IDU d1623      60.222  42.650  42.920  0.00  0.00    -0.572 OA
ENDBRANCH  20  21
ENDBRANCH  13  20
ENDBRANCH   7   8
ENDBRANCH   4   7
BRANCH   3  25
ATOM     25  C6  SGN d5702      61.761  40.011  38.088  0.00  0.00     0.227 C 
BRANCH  25  26
ATOM     26  O6  SGN d5702      61.703  39.601  36.730  0.00  0.00    -0.254 OA
BRANCH  26  27
ATOM     27  S2  SGN d5702      61.169  40.742  35.543  0.00  0.00     0.251 S 
ATOM     28  O4S SGN d5702      60.137  40.193  34.723  0.00  0.00    -0.572 OA
ATOM     29  O5S SGN d5702      62.288  41.097  34.718  0.00  0.00    -0.572 OA
ATOM     30  O6S SGN d5702      60.644  41.847  36.290  0.00  0.00    -0.572 OA
ENDBRANCH  26  27
ENDBRANCH  25  26
ENDBRANCH   3  25
BRANCH   5  31
ATOM     31  O3  SGN d5702      66.490  40.752  39.305  0.00  0.00    -0.391 OA
ATOM     32  H   SGN d5702      66.785  41.033  38.425  0.00  0.00     0.210 HD
ENDBRANCH   5  31
BRANCH   2  33
ATOM     33  N   SGN d5702      67.012  38.172  38.348  0.00  0.00    -0.189 NA
ATOM     34  H   SGN d5702      66.834  37.168  38.311  0.00  0.00     0.143 HD
BRANCH  33  35
ATOM     35  S1  SGN d5702      68.296  38.566  37.200  0.00  0.00     0.183 S 
ATOM     36  O1S SGN d5702      69.573  38.327  37.842  0.00  0.00    -0.582 OA
ATOM     37  O2S SGN d5702      68.224  39.957  36.890  0.00  0.00    -0.582 OA
ATOM     38  O3S SGN d5702      68.051  37.717  36.050  0.00  0.00    -0.582 OA
ENDBRANCH  33  35
ENDBRANCH   2  33
BRANCH   6  39
ATOM     39  O1  SGN d5702      64.586  36.979  38.999  0.00  0.00    -0.369 OA
ATOM     40  H   SGN d5702      64.374  36.081  38.702  0.00  0.00     0.212 HD
ENDBRANCH   6  39
TORSDOF 14
ENDMDL
MODEL 35
REMARK VINA RESULT:      -3.8      3.918      8.492
REMARK  14 active torsions:
REMARK  status: ('A' for Active; 'I' for Inactive)
REMARK    1  A    between atoms: C5_1  and  C6_23 
REMARK    2  A    between atoms: S2_5  and  O6_7 
REMARK    3  A    between atoms: O1_6  and  C1_35 
REMARK    4  A    between atoms: O6_7  and  C6_21 
REMARK    5  A    between atoms: O2_9  and  C2_28 
REMARK    6  A    between atoms: O2_9  and  S_13 
REMARK    7  A    between atoms: C3_10  and  O3_20 
REMARK    8  A    between atoms: C1_11  and  O4_12 
REMARK    9  A    between atoms: O4_12  and  C4_19 
REMARK   10  A    between atoms: C2_15  and  N_29 
REMARK   11  A    between atoms: C5_17  and  C6_21 
REMARK   12  A    between atoms: C6_23  and  O61_33 
REMARK   13  A    between atoms: O3_24  and  C3_26 
REMARK   14  A    between atoms: S1_27  and  N_29 
ROOT
ATOM      1  O5  SGN d5702      65.171  41.524  38.269  0.00  0.00    -0.350 OA
ATOM      2  C2  SGN d5702      62.916  41.955  37.568  0.00  0.00     0.160 C 
ATOM      3  C5  SGN d5702      64.808  40.375  38.995  0.00  0.00     0.181 C 
ATOM      4  C4  SGN d5702      63.550  39.752  38.357  0.00  0.00     0.186 C 
ATOM      5  C3  SGN d5702      62.419  40.814  38.415  0.00  0.00     0.173 C 
ATOM      6  C1  SGN d5702      64.178  42.548  38.169  0.00  0.00     0.278 C 
ENDROOT
BRANCH   4   7
ATOM      7  O4  SGN d5702      63.240  38.568  39.141  0.00  0.00    -0.348 OA
BRANCH   7   8
ATOM      8  C1  IDU d1623      62.936  37.284  38.636  0.00  0.00     0.294 C 
ATOM      9  O5  IDU d1623      64.084  36.608  38.029  0.00  0.00    -0.343 OA
ATOM     10  C5  IDU d1623      63.750  35.327  37.387  0.00  0.00     0.224 C 
ATOM     11  C4  IDU d1623      63.187  34.371  38.451  0.00  0.00     0.077 C 
ATOM     12  C3  IDU d1623      61.961  35.010  39.122  0.00  0.00     0.156 C 
ATOM     13  C2  IDU d1623      62.407  36.348  39.734  0.00  0.00     0.228 C 
BRANCH  10  14
ATOM     14  C6  IDU d1623      64.966  34.686  36.774  0.00  0.00     0.170 C 
ATOM     15  O62 IDU d1623      64.829  33.587  36.215  0.00  0.00    -0.648 OA
BRANCH  14  16
ATOM     16  O61 IDU d1623      66.050  35.296  36.863  0.00  0.00    -0.774 OA
ENDBRANCH  14  16
ENDBRANCH  10  14
BRANCH  12  18
ATOM     18  O3  IDU d1623      60.963  35.228  38.164  0.00  0.00    -0.393 OA
ATOM     19  H   IDU d1623      60.334  34.490  38.180  0.00  0.00     0.210 HD
ENDBRANCH  12  18
BRANCH  13  20
ATOM     20  O2  IDU d1623      63.455  36.128  40.647  0.00  0.00    -0.244 OA
BRANCH  20  21
ATOM     21  S   IDU d1623      63.272  36.729  42.262  0.00  0.00     0.252 S 
ATOM     22  O3S IDU d1623      63.981  35.919  43.180  0.00  0.00    -0.572 OA
ATOM     23  O1S IDU d1623      61.865  36.794  42.520  0.00  0.00    -0.572 OA
ATOM     24  O2S IDU d1623      63.839  38.063  42.384  0.00  0.00    -0.572 OA
ENDBRANCH  20  21
ENDBRANCH  13  20
ENDBRANCH   7   8
ENDBRANCH   4   7
BRANCH   3  25
ATOM     25  C6  SGN d5702      65.978  39.443  38.963  0.00  0.00     0.227 C 
BRANCH  25  26
ATOM     26  O6  SGN d5702      66.240  39.197  40.337  0.00  0.00    -0.254 OA
BRANCH  26  27
ATOM     27  S2  SGN d5702      67.193  37.816  40.765  0.00  0.00     0.251 S 
ATOM     28  O4S SGN d5702      67.110  37.542  42.163  0.00  0.00    -0.572 OA
ATOM     29  O5S SGN d5702      68.560  38.082  40.417  0.00  0.00    -0.572 OA
ATOM     30  O6S SGN d5702      66.624  36.724  40.031  0.00  0.00    -0.572 OA
ENDBRANCH  26  27
ENDBRANCH  25  26
ENDBRANCH   3  25
BRANCH   5  31
ATOM     31  O3  SGN d5702      61.248  40.297  37.830  0.00  0.00    -0.391 OA
ATOM     32  H   SGN d5702      61.372  39.355  37.637  0.00  0.00     0.210 HD
ENDBRANCH   5  31
BRANCH   2  33
ATOM     33  N   SGN d5702      61.940  42.992  37.513  0.00  0.00    -0.189 NA
ATOM     34  H   SGN d5702      62.378  43.872  37.786  0.00  0.00     0.143 HD
BRANCH  33  35
ATOM     35  S1  SGN d5702      61.258  43.173  35.893  0.00  0.00     0.183 S 
ATOM     36  O1S SGN d5702      60.983  41.853  35.361  0.00  0.00    -0.582 OA
ATOM     37  O2S SGN d5702      62.234  43.781  35.050  0.00  0.00    -0.582 OA
ATOM     38  O3S SGN d5702      60.074  43.992  36.069  0.00  0.00    -0.582 OA
ENDBRANCH  33  35
ENDBRANCH   2  33
BRANCH   6  39
ATOM     39  O1  SGN d5702      63.952  43.142  39.425  0.00  0.00    -0.369 OA
ATOM     40  H   SGN d5702      63.801  44.093  39.310  0.00  0.00     0.212 HD
ENDBRANCH   6  39
TORSDOF 14
ENDMDL
MODEL 36
REMARK VINA RESULT:      -3.8      3.558      6.392
REMARK  14 active torsions:
REMARK  status: ('A' for Active; 'I' for Inactive)
REMARK    1  A    between atoms: C5_1  and  C6_23 
REMARK    2  A    between atoms: S2_5  and  O6_7 
REMARK    3  A    between atoms: O1_6  and  C1_35 
REMARK    4  A    between atoms: O6_7  and  C6_21 
REMARK    5  A    between atoms: O2_9  and  C2_28 
REMARK    6  A    between atoms: O2_9  and  S_13 
REMARK    7  A    between atoms: C3_10  and  O3_20 
REMARK    8  A    between atoms: C1_11  and  O4_12 
REMARK    9  A    between atoms: O4_12  and  C4_19 
REMARK   10  A    between atoms: C2_15  and  N_29 
REMARK   11  A    between atoms: C5_17  and  C6_21 
REMARK   12  A    between atoms: C6_23  and  O61_33 
REMARK   13  A    between atoms: O3_24  and  C3_26 
REMARK   14  A    between atoms: S1_27  and  N_29 
ROOT
ATOM      1  O5  SGN d5702      63.514  37.479  38.085  0.00  0.00    -0.350 OA
ATOM      2  C2  SGN d5702      62.513  37.580  40.264  0.00  0.00     0.160 C 
ATOM      3  C5  SGN d5702      63.079  38.772  37.740  0.00  0.00     0.181 C 
ATOM      4  C4  SGN d5702      62.945  39.617  39.023  0.00  0.00     0.186 C 
ATOM      5  C3  SGN d5702      61.904  38.918  39.939  0.00  0.00     0.173 C 
ATOM      6  C1  SGN d5702      62.685  36.757  39.001  0.00  0.00     0.278 C 
ENDROOT
BRANCH   4   7
ATOM      7  O4  SGN d5702      62.510  40.937  38.596  0.00  0.00    -0.348 OA
BRANCH   7   8
ATOM      8  C1  IDU d1623      62.875  42.169  39.182  0.00  0.00     0.294 C 
ATOM      9  O5  IDU d1623      64.313  42.439  39.127  0.00  0.00    -0.343 OA
ATOM     10  C5  IDU d1623      64.719  43.657  39.846  0.00  0.00     0.224 C 
ATOM     11  C4  IDU d1623      64.019  44.867  39.207  0.00  0.00     0.077 C 
ATOM     12  C3  IDU d1623      62.496  44.661  39.244  0.00  0.00     0.156 C 
ATOM     13  C2  IDU d1623      62.181  43.357  38.495  0.00  0.00     0.228 C 
BRANCH  10  14
ATOM     14  C6  IDU d1623      66.205  43.874  39.763  0.00  0.00     0.170 C 
ATOM     15  O62 IDU d1623      66.854  43.893  40.820  0.00  0.00    -0.648 OA
BRANCH  14  16
ATOM     16  O61 IDU d1623      66.707  44.027  38.631  0.00  0.00    -0.774 OA
ENDBRANCH  14  16
ENDBRANCH  10  14
BRANCH  12  18
ATOM     18  O3  IDU d1623      62.069  44.568  40.574  0.00  0.00    -0.393 OA
ATOM     19  H   IDU d1623      61.111  44.710  40.617  0.00  0.00     0.210 HD
ENDBRANCH  12  18
BRANCH  13  20
ATOM     20  O2  IDU d1623      62.672  43.433  37.178  0.00  0.00    -0.244 OA
BRANCH  20  21
ATOM     21  S   IDU d1623      61.534  43.342  35.875  0.00  0.00     0.252 S 
ATOM     22  O3S IDU d1623      62.130  43.755  34.661  0.00  0.00    -0.572 OA
ATOM     23  O1S IDU d1623      60.404  44.134  36.259  0.00  0.00    -0.572 OA
ATOM     24  O2S IDU d1623      61.101  41.969  35.662  0.00  0.00    -0.572 OA
ENDBRANCH  20  21
ENDBRANCH  13  20
ENDBRANCH   7   8
ENDBRANCH   4   7
BRANCH   3  25
ATOM     25  C6  SGN d5702      64.088  39.340  36.792  0.00  0.00     0.227 C 
BRANCH  25  26
ATOM     26  O6  SGN d5702      65.313  38.778  37.240  0.00  0.00    -0.254 OA
BRANCH  26  27
ATOM     27  S2  SGN d5702      66.621  39.843  37.627  0.00  0.00     0.251 S 
ATOM     28  O4S SGN d5702      66.476  41.103  36.972  0.00  0.00    -0.572 OA
ATOM     29  O5S SGN d5702      67.847  39.230  37.202  0.00  0.00    -0.572 OA
ATOM     30  O6S SGN d5702      66.545  40.033  39.046  0.00  0.00    -0.572 OA
ENDBRANCH  26  27
ENDBRANCH  25  26
ENDBRANCH   3  25
BRANCH   5  31
ATOM     31  O3  SGN d5702      61.754  39.646  41.134  0.00  0.00    -0.391 OA
ATOM     32  H   SGN d5702      61.146  40.387  40.987  0.00  0.00     0.210 HD
ENDBRANCH   5  31
BRANCH   2  33
ATOM     33  N   SGN d5702      61.658  36.847  41.139  0.00  0.00    -0.189 NA
ATOM     34  H   SGN d5702      61.396  35.971  40.687  0.00  0.00     0.143 HD
BRANCH  33  35
ATOM     35  S1  SGN d5702      62.444  36.482  42.678  0.00  0.00     0.183 S 
ATOM     36  O1S SGN d5702      63.732  35.876  42.403  0.00  0.00    -0.582 OA
ATOM     37  O2S SGN d5702      61.657  35.520  43.379  0.00  0.00    -0.582 OA
ATOM     38  O3S SGN d5702      62.532  37.753  43.372  0.00  0.00    -0.582 OA
ENDBRANCH  33  35
ENDBRANCH   2  33
BRANCH   6  39
ATOM     39  O1  SGN d5702      61.457  36.424  38.399  0.00  0.00    -0.369 OA
ATOM     40  H   SGN d5702      60.906  37.220  38.329  0.00  0.00     0.212 HD
ENDBRANCH   6  39
TORSDOF 14
ENDMDL
MODEL 37
REMARK VINA RESULT:      -3.7      4.103      7.029
REMARK  14 active torsions:
REMARK  status: ('A' for Active; 'I' for Inactive)
REMARK    1  A    between atoms: C5_1  and  C6_23 
REMARK    2  A    between atoms: S2_5  and  O6_7 
REMARK    3  A    between atoms: O1_6  and  C1_35 
REMARK    4  A    between atoms: O6_7  and  C6_21 
REMARK    5  A    between atoms: O2_9  and  C2_28 
REMARK    6  A    between atoms: O2_9  and  S_13 
REMARK    7  A    between atoms: C3_10  and  O3_20 
REMARK    8  A    between atoms: C1_11  and  O4_12 
REMARK    9  A    between atoms: O4_12  and  C4_19 
REMARK   10  A    between atoms: C2_15  and  N_29 
REMARK   11  A    between atoms: C5_17  and  C6_21 
REMARK   12  A    between atoms: C6_23  and  O61_33 
REMARK   13  A    between atoms: O3_24  and  C3_26 
REMARK   14  A    between atoms: S1_27  and  N_29 
ROOT
ATOM      1  O5  SGN d5702      62.491  40.302  37.374  0.00  0.00    -0.350 OA
ATOM      2  C2  SGN d5702      62.739  38.663  39.111  0.00  0.00     0.160 C 
ATOM      3  C5  SGN d5702      62.384  41.366  38.288  0.00  0.00     0.181 C 
ATOM      4  C4  SGN d5702      63.154  41.006  39.574  0.00  0.00     0.186 C 
ATOM      5  C3  SGN d5702      62.513  39.719  40.160  0.00  0.00     0.173 C 
ATOM      6  C1  SGN d5702      62.016  39.031  37.828  0.00  0.00     0.278 C 
ENDROOT
BRANCH   4   7
ATOM      7  O4  SGN d5702      63.017  42.148  40.464  0.00  0.00    -0.348 OA
BRANCH   7   8
ATOM      8  C1  IDU d1623      64.046  42.744  41.226  0.00  0.00     0.294 C 
ATOM      9  O5  IDU d1623      65.051  43.432  40.414  0.00  0.00    -0.343 OA
ATOM     10  C5  IDU d1623      66.193  43.945  41.189  0.00  0.00     0.224 C 
ATOM     11  C4  IDU d1623      65.677  44.969  42.213  0.00  0.00     0.077 C 
ATOM     12  C3  IDU d1623      64.624  44.309  43.117  0.00  0.00     0.156 C 
ATOM     13  C2  IDU d1623      63.495  43.784  42.215  0.00  0.00     0.228 C 
BRANCH  10  14
ATOM     14  C6  IDU d1623      67.195  44.631  40.301  0.00  0.00     0.170 C 
ATOM     15  O62 IDU d1623      68.110  45.274  40.839  0.00  0.00    -0.648 OA
BRANCH  14  16
ATOM     16  O61 IDU d1623      67.051  44.518  39.067  0.00  0.00    -0.774 OA
ENDBRANCH  14  16
ENDBRANCH  10  14
BRANCH  12  18
ATOM     18  O3  IDU d1623      65.209  43.249  43.821  0.00  0.00    -0.393 OA
ATOM     19  H   IDU d1623      65.715  42.694  43.207  0.00  0.00     0.210 HD
ENDBRANCH  12  18
BRANCH  13  20
ATOM     20  O2  IDU d1623      62.956  44.844  41.461  0.00  0.00    -0.244 OA
BRANCH  20  21
ATOM     21  S   IDU d1623      61.252  45.138  41.568  0.00  0.00     0.252 S 
ATOM     22  O3S IDU d1623      60.609  44.098  42.281  0.00  0.00    -0.572 OA
ATOM     23  O1S IDU d1623      60.775  45.294  40.227  0.00  0.00    -0.572 OA
ATOM     24  O2S IDU d1623      60.984  46.359  42.312  0.00  0.00    -0.572 OA
ENDBRANCH  20  21
ENDBRANCH  13  20
ENDBRANCH   7   8
ENDBRANCH   4   7
BRANCH   3  25
ATOM     25  C6  SGN d5702      62.943  42.582  37.617  0.00  0.00     0.227 C 
BRANCH  25  26
ATOM     26  O6  SGN d5702      61.847  43.485  37.607  0.00  0.00    -0.254 OA
BRANCH  26  27
ATOM     27  S2  SGN d5702      60.799  43.502  36.230  0.00  0.00     0.251 S 
ATOM     28  O4S SGN d5702      59.841  44.556  36.318  0.00  0.00    -0.572 OA
ATOM     29  O5S SGN d5702      60.110  42.244  36.167  0.00  0.00    -0.572 OA
ATOM     30  O6S SGN d5702      61.658  43.732  35.105  0.00  0.00    -0.572 OA
ENDBRANCH  26  27
ENDBRANCH  25  26
ENDBRANCH   3  25
BRANCH   5  31
ATOM     31  O3  SGN d5702      63.191  39.339  41.333  0.00  0.00    -0.391 OA
ATOM     32  H   SGN d5702      64.103  39.093  41.114  0.00  0.00     0.210 HD
ENDBRANCH   5  31
BRANCH   2  33
ATOM     33  N   SGN d5702      62.219  37.410  39.551  0.00  0.00    -0.189 NA
ATOM     34  H   SGN d5702      61.516  37.092  38.883  0.00  0.00     0.143 HD
BRANCH  33  35
ATOM     35  S1  SGN d5702      63.481  36.180  39.680  0.00  0.00     0.183 S 
ATOM     36  O1S SGN d5702      62.946  35.050  40.413  0.00  0.00    -0.582 OA
ATOM     37  O2S SGN d5702      64.564  36.711  40.440  0.00  0.00    -0.582 OA
ATOM     38  O3S SGN d5702      63.849  35.869  38.312  0.00  0.00    -0.582 OA
ENDBRANCH  33  35
ENDBRANCH   2  33
BRANCH   6  39
ATOM     39  O1  SGN d5702      60.617  39.052  37.981  0.00  0.00    -0.369 OA
ATOM     40  H   SGN d5702      60.359  38.435  38.683  0.00  0.00     0.212 HD
ENDBRANCH   6  39
TORSDOF 14
ENDMDL
MODEL 38
REMARK VINA RESULT:      -3.7      3.072      7.759
REMARK  14 active torsions:
REMARK  status: ('A' for Active; 'I' for Inactive)
REMARK    1  A    between atoms: C5_1  and  C6_23 
REMARK    2  A    between atoms: S2_5  and  O6_7 
REMARK    3  A    between atoms: O1_6  and  C1_35 
REMARK    4  A    between atoms: O6_7  and  C6_21 
REMARK    5  A    between atoms: O2_9  and  C2_28 
REMARK    6  A    between atoms: O2_9  and  S_13 
REMARK    7  A    between atoms: C3_10  and  O3_20 
REMARK    8  A    between atoms: C1_11  and  O4_12 
REMARK    9  A    between atoms: O4_12  and  C4_19 
REMARK   10  A    between atoms: C2_15  and  N_29 
REMARK   11  A    between atoms: C5_17  and  C6_21 
REMARK   12  A    between atoms: C6_23  and  O61_33 
REMARK   13  A    between atoms: O3_24  and  C3_26 
REMARK   14  A    between atoms: S1_27  and  N_29 
ROOT
ATOM      1  O5  SGN d5702      62.592  41.493  34.470  0.00  0.00    -0.350 OA
ATOM      2  C2  SGN d5702      64.810  42.411  34.456  0.00  0.00     0.160 C 
ATOM      3  C5  SGN d5702      62.690  41.076  35.810  0.00  0.00     0.181 C 
ATOM      4  C4  SGN d5702      63.670  42.004  36.556  0.00  0.00     0.186 C 
ATOM      5  C3  SGN d5702      65.048  41.895  35.850  0.00  0.00     0.173 C 
ATOM      6  C1  SGN d5702      63.815  41.526  33.729  0.00  0.00     0.278 C 
ENDROOT
BRANCH   4   7
ATOM      7  O4  SGN d5702      63.712  41.530  37.930  0.00  0.00    -0.348 OA
BRANCH   7   8
ATOM      8  C1  IDU d1623      63.674  42.330  39.094  0.00  0.00     0.294 C 
ATOM      9  O5  IDU d1623      62.497  43.199  39.167  0.00  0.00    -0.343 OA
ATOM     10  C5  IDU d1623      62.513  44.127  40.309  0.00  0.00     0.224 C 
ATOM     11  C4  IDU d1623      62.540  43.311  41.611  0.00  0.00     0.077 C 
ATOM     12  C3  IDU d1623      63.765  42.382  41.613  0.00  0.00     0.156 C 
ATOM     13  C2  IDU d1623      63.670  41.479  40.374  0.00  0.00     0.228 C 
BRANCH  10  14
ATOM     14  C6  IDU d1623      61.286  44.998  40.325  0.00  0.00     0.170 C 
ATOM     15  O62 IDU d1623      60.610  45.038  41.365  0.00  0.00    -0.648 OA
BRANCH  14  16
ATOM     16  O61 IDU d1623      61.013  45.636  39.288  0.00  0.00    -0.774 OA
ENDBRANCH  14  16
ENDBRANCH  10  14
BRANCH  12  18
ATOM     18  O3  IDU d1623      64.935  43.151  41.559  0.00  0.00    -0.393 OA
ATOM     19  H   IDU d1623      65.168  43.446  42.453  0.00  0.00     0.210 HD
ENDBRANCH  12  18
BRANCH  13  20
ATOM     20  O2  IDU d1623      62.461  40.758  40.401  0.00  0.00    -0.244 OA
BRANCH  20  21
ATOM     21  S   IDU d1623      62.534  39.034  40.252  0.00  0.00     0.252 S 
ATOM     22  O3S IDU d1623      63.840  38.563  40.527  0.00  0.00    -0.572 OA
ATOM     23  O1S IDU d1623      62.074  38.714  38.934  0.00  0.00    -0.572 OA
ATOM     24  O2S IDU d1623      61.664  38.393  41.226  0.00  0.00    -0.572 OA
ENDBRANCH  20  21
ENDBRANCH  13  20
ENDBRANCH   7   8
ENDBRANCH   4   7
BRANCH   3  25
ATOM     25  C6  SGN d5702      61.311  41.127  36.391  0.00  0.00     0.227 C 
BRANCH  25  26
ATOM     26  O6  SGN d5702      60.594  41.930  35.465  0.00  0.00    -0.254 OA
BRANCH  26  27
ATOM     27  S2  SGN d5702      60.225  43.565  35.897  0.00  0.00     0.251 S 
ATOM     28  O4S SGN d5702      61.413  44.326  36.114  0.00  0.00    -0.572 OA
ATOM     29  O5S SGN d5702      59.447  43.551  37.103  0.00  0.00    -0.572 OA
ATOM     30  O6S SGN d5702      59.515  44.102  34.773  0.00  0.00    -0.572 OA
ENDBRANCH  26  27
ENDBRANCH  25  26
ENDBRANCH   3  25
BRANCH   5  31
ATOM     31  O3  SGN d5702      65.979  42.737  36.488  0.00  0.00    -0.391 OA
ATOM     32  H   SGN d5702      65.897  43.636  36.134  0.00  0.00     0.210 HD
ENDBRANCH   5  31
BRANCH   2  33
ATOM     33  N   SGN d5702      66.024  42.395  33.708  0.00  0.00    -0.189 NA
ATOM     34  H   SGN d5702      65.894  41.812  32.881  0.00  0.00     0.143 HD
BRANCH  33  35
ATOM     35  S1  SGN d5702      66.505  44.015  33.195  0.00  0.00     0.183 S 
ATOM     36  O1S SGN d5702      66.750  44.818  34.377  0.00  0.00    -0.582 OA
ATOM     37  O2S SGN d5702      65.421  44.613  32.486  0.00  0.00    -0.582 OA
ATOM     38  O3S SGN d5702      67.680  43.818  32.367  0.00  0.00    -0.582 OA
ENDBRANCH  33  35
ENDBRANCH   2  33
BRANCH   6  39
ATOM     39  O1  SGN d5702      64.301  40.221  33.520  0.00  0.00    -0.369 OA
ATOM     40  H   SGN d5702      65.238  40.262  33.272  0.00  0.00     0.212 HD
ENDBRANCH   6  39
TORSDOF 14
ENDMDL
MODEL 39
REMARK VINA RESULT:      -3.7      3.083      7.430
REMARK  14 active torsions:
REMARK  status: ('A' for Active; 'I' for Inactive)
REMARK    1  A    between atoms: C5_1  and  C6_23 
REMARK    2  A    between atoms: S2_5  and  O6_7 
REMARK    3  A    between atoms: O1_6  and  C1_35 
REMARK    4  A    between atoms: O6_7  and  C6_21 
REMARK    5  A    between atoms: O2_9  and  C2_28 
REMARK    6  A    between atoms: O2_9  and  S_13 
REMARK    7  A    between atoms: C3_10  and  O3_20 
REMARK    8  A    between atoms: C1_11  and  O4_12 
REMARK    9  A    between atoms: O4_12  and  C4_19 
REMARK   10  A    between atoms: C2_15  and  N_29 
REMARK   11  A    between atoms: C5_17  and  C6_21 
REMARK   12  A    between atoms: C6_23  and  O61_33 
REMARK   13  A    between atoms: O3_24  and  C3_26 
REMARK   14  A    between atoms: S1_27  and  N_29 
ROOT
ATOM      1  O5  SGN d5702      63.230  43.917  37.672  0.00  0.00    -0.350 OA
ATOM      2  C2  SGN d5702      63.214  43.623  35.290  0.00  0.00     0.160 C 
ATOM      3  C5  SGN d5702      63.192  42.532  37.920  0.00  0.00     0.181 C 
ATOM      4  C4  SGN d5702      63.854  41.791  36.742  0.00  0.00     0.186 C 
ATOM      5  C3  SGN d5702      63.051  42.136  35.459  0.00  0.00     0.173 C 
ATOM      6  C1  SGN d5702      62.600  44.359  36.466  0.00  0.00     0.278 C 
ENDROOT
BRANCH   4   7
ATOM      7  O4  SGN d5702      63.796  40.375  37.068  0.00  0.00    -0.348 OA
BRANCH   7   8
ATOM      8  C1  IDU d1623      64.834  39.433  36.899  0.00  0.00     0.294 C 
ATOM      9  O5  IDU d1623      66.047  39.759  37.651  0.00  0.00    -0.343 OA
ATOM     10  C5  IDU d1623      67.177  38.854  37.381  0.00  0.00     0.224 C 
ATOM     11  C4  IDU d1623      66.776  37.426  37.787  0.00  0.00     0.077 C 
ATOM     12  C3  IDU d1623      65.512  37.007  37.019  0.00  0.00     0.156 C 
ATOM     13  C2  IDU d1623      64.408  38.025  37.344  0.00  0.00     0.228 C 
BRANCH  10  14
ATOM     14  C6  IDU d1623      68.395  39.245  38.174  0.00  0.00     0.170 C 
ATOM     15  O62 IDU d1623      68.373  39.076  39.403  0.00  0.00    -0.648 OA
BRANCH  14  16
ATOM     16  O61 IDU d1623      69.365  39.721  37.550  0.00  0.00    -0.774 OA
ENDBRANCH  14  16
ENDBRANCH  10  14
BRANCH  12  18
ATOM     18  O3  IDU d1623      65.778  37.009  35.644  0.00  0.00    -0.393 OA
ATOM     19  H   IDU d1623      65.424  37.820  35.248  0.00  0.00     0.210 HD
ENDBRANCH  12  18
BRANCH  13  20
ATOM     20  O2  IDU d1623      64.192  38.066  38.735  0.00  0.00    -0.244 OA
BRANCH  20  21
ATOM     21  S   IDU d1623      62.599  37.729  39.325  0.00  0.00     0.252 S 
ATOM     22  O3S IDU d1623      62.064  36.582  38.693  0.00  0.00    -0.572 OA
ATOM     23  O1S IDU d1623      61.822  38.914  39.117  0.00  0.00    -0.572 OA
ATOM     24  O2S IDU d1623      62.628  37.425  40.748  0.00  0.00    -0.572 OA
ENDBRANCH  20  21
ENDBRANCH  13  20
ENDBRANCH   7   8
ENDBRANCH   4   7
BRANCH   3  25
ATOM     25  C6  SGN d5702      63.910  42.295  39.212  0.00  0.00     0.227 C 
BRANCH  25  26
ATOM     26  O6  SGN d5702      62.855  42.126  40.148  0.00  0.00    -0.254 OA
BRANCH  26  27
ATOM     27  S2  SGN d5702      63.177  41.261  41.612  0.00  0.00     0.251 S 
ATOM     28  O4S SGN d5702      62.034  40.522  42.041  0.00  0.00    -0.572 OA
ATOM     29  O5S SGN d5702      63.535  42.208  42.630  0.00  0.00    -0.572 OA
ATOM     30  O6S SGN d5702      64.237  40.352  41.288  0.00  0.00    -0.572 OA
ENDBRANCH  26  27
ENDBRANCH  25  26
ENDBRANCH   3  25
BRANCH   5  31
ATOM     31  O3  SGN d5702      63.625  41.492  34.348  0.00  0.00    -0.391 OA
ATOM     32  H   SGN d5702      62.923  41.164  33.765  0.00  0.00     0.210 HD
ENDBRANCH   5  31
BRANCH   2  33
ATOM     33  N   SGN d5702      62.543  44.064  34.111  0.00  0.00    -0.189 NA
ATOM     34  H   SGN d5702      61.921  44.836  34.355  0.00  0.00     0.143 HD
BRANCH  33  35
ATOM     35  S1  SGN d5702      63.675  44.613  32.872  0.00  0.00     0.183 S 
ATOM     36  O1S SGN d5702      63.660  46.062  32.845  0.00  0.00    -0.582 OA
ATOM     37  O2S SGN d5702      63.220  44.155  31.599  0.00  0.00    -0.582 OA
ATOM     38  O3S SGN d5702      64.956  44.048  33.250  0.00  0.00    -0.582 OA
ENDBRANCH  33  35
ENDBRANCH   2  33
BRANCH   6  39
ATOM     39  O1  SGN d5702      61.205  44.186  36.546  0.00  0.00    -0.369 OA
ATOM     40  H   SGN d5702      60.846  44.051  35.655  0.00  0.00     0.212 HD
ENDBRANCH   6  39
TORSDOF 14
ENDMDL
MODEL 40
REMARK VINA RESULT:      -3.7      3.574      8.207
REMARK  14 active torsions:
REMARK  status: ('A' for Active; 'I' for Inactive)
REMARK    1  A    between atoms: C5_1  and  C6_23 
REMARK    2  A    between atoms: S2_5  and  O6_7 
REMARK    3  A    between atoms: O1_6  and  C1_35 
REMARK    4  A    between atoms: O6_7  and  C6_21 
REMARK    5  A    between atoms: O2_9  and  C2_28 
REMARK    6  A    between atoms: O2_9  and  S_13 
REMARK    7  A    between atoms: C3_10  and  O3_20 
REMARK    8  A    between atoms: C1_11  and  O4_12 
REMARK    9  A    between atoms: O4_12  and  C4_19 
REMARK   10  A    between atoms: C2_15  and  N_29 
REMARK   11  A    between atoms: C5_17  and  C6_21 
REMARK   12  A    between atoms: C6_23  and  O61_33 
REMARK   13  A    between atoms: O3_24  and  C3_26 
REMARK   14  A    between atoms: S1_27  and  N_29 
ROOT
ATOM      1  O5  SGN d5702      65.057  41.497  37.325  0.00  0.00    -0.350 OA
ATOM      2  C2  SGN d5702      62.690  41.892  37.247  0.00  0.00     0.160 C 
ATOM      3  C5  SGN d5702      64.918  40.354  38.133  0.00  0.00     0.181 C 
ATOM      4  C4  SGN d5702      63.545  39.708  37.860  0.00  0.00     0.186 C 
ATOM      5  C3  SGN d5702      62.454  40.756  38.208  0.00  0.00     0.173 C 
ATOM      6  C1  SGN d5702      64.057  42.508  37.483  0.00  0.00     0.278 C 
ENDROOT
BRANCH   4   7
ATOM      7  O4  SGN d5702      63.474  38.531  38.711  0.00  0.00    -0.348 OA
BRANCH   7   8
ATOM      8  C1  IDU d1623      63.056  37.239  38.321  0.00  0.00     0.294 C 
ATOM      9  O5  IDU d1623      64.097  36.471  37.635  0.00  0.00    -0.343 OA
ATOM     10  C5  IDU d1623      63.634  35.176  37.112  0.00  0.00     0.224 C 
ATOM     11  C4  IDU d1623      63.149  34.311  38.287  0.00  0.00     0.077 C 
ATOM     12  C3  IDU d1623      62.037  35.050  39.048  0.00  0.00     0.156 C 
ATOM     13  C2  IDU d1623      62.610  36.394  39.525  0.00  0.00     0.228 C 
BRANCH  10  14
ATOM     14  C6  IDU d1623      64.742  34.438  36.411  0.00  0.00     0.170 C 
ATOM     15  O62 IDU d1623      64.811  34.523  35.175  0.00  0.00    -0.648 OA
BRANCH  14  16
ATOM     16  O61 IDU d1623      65.535  33.778  37.113  0.00  0.00    -0.774 OA
ENDBRANCH  14  16
ENDBRANCH  10  14
BRANCH  12  18
ATOM     18  O3  IDU d1623      60.950  35.267  38.193  0.00  0.00    -0.393 OA
ATOM     19  H   IDU d1623      60.152  35.429  38.720  0.00  0.00     0.210 HD
ENDBRANCH  12  18
BRANCH  13  20
ATOM     20  O2  IDU d1623      63.743  36.171  40.331  0.00  0.00    -0.244 OA
BRANCH  20  21
ATOM     21  S   IDU d1623      63.637  36.559  42.016  0.00  0.00     0.252 S 
ATOM     22  O3S IDU d1623      62.438  36.053  42.571  0.00  0.00    -0.572 OA
ATOM     23  O1S IDU d1623      63.762  37.981  42.120  0.00  0.00    -0.572 OA
ATOM     24  O2S IDU d1623      64.719  35.931  42.760  0.00  0.00    -0.572 OA
ENDBRANCH  20  21
ENDBRANCH  13  20
ENDBRANCH   7   8
ENDBRANCH   4   7
BRANCH   3  25
ATOM     25  C6  SGN d5702      66.052  39.436  37.799  0.00  0.00     0.227 C 
BRANCH  25  26
ATOM     26  O6  SGN d5702      65.920  39.248  36.398  0.00  0.00    -0.254 OA
BRANCH  26  27
ATOM     27  S2  SGN d5702      66.893  38.041  35.628  0.00  0.00     0.251 S 
ATOM     28  O4S SGN d5702      67.199  36.972  36.524  0.00  0.00    -0.572 OA
ATOM     29  O5S SGN d5702      68.114  38.653  35.190  0.00  0.00    -0.572 OA
ATOM     30  O6S SGN d5702      66.091  37.542  34.549  0.00  0.00    -0.572 OA
ENDBRANCH  26  27
ENDBRANCH  25  26
ENDBRANCH   3  25
BRANCH   5  31
ATOM     31  O3  SGN d5702      61.178  40.218  37.963  0.00  0.00    -0.391 OA
ATOM     32  H   SGN d5702      61.261  39.276  37.744  0.00  0.00     0.210 HD
ENDBRANCH   5  31
BRANCH   2  33
ATOM     33  N   SGN d5702      61.718  42.916  37.445  0.00  0.00    -0.189 NA
ATOM     34  H   SGN d5702      62.199  43.785  37.683  0.00  0.00     0.143 HD
BRANCH  33  35
ATOM     35  S1  SGN d5702      60.737  43.184  36.001  0.00  0.00     0.183 S 
ATOM     36  O1S SGN d5702      60.277  41.899  35.514  0.00  0.00    -0.582 OA
ATOM     37  O2S SGN d5702      61.560  43.758  34.986  0.00  0.00    -0.582 OA
ATOM     38  O3S SGN d5702      59.667  44.066  36.426  0.00  0.00    -0.582 OA
ENDBRANCH  33  35
ENDBRANCH   2  33
BRANCH   6  39
ATOM     39  O1  SGN d5702      64.166  43.116  38.748  0.00  0.00    -0.369 OA
ATOM     40  H   SGN d5702      65.081  43.406  38.889  0.00  0.00     0.212 HD
ENDBRANCH   6  39
TORSDOF 14
ENDMDL
MODEL 41
REMARK VINA RESULT:      -3.7      2.775      3.488
REMARK  14 active torsions:
REMARK  status: ('A' for Active; 'I' for Inactive)
REMARK    1  A    between atoms: C5_1  and  C6_23 
REMARK    2  A    between atoms: S2_5  and  O6_7 
REMARK    3  A    between atoms: O1_6  and  C1_35 
REMARK    4  A    between atoms: O6_7  and  C6_21 
REMARK    5  A    between atoms: O2_9  and  C2_28 
REMARK    6  A    between atoms: O2_9  and  S_13 
REMARK    7  A    between atoms: C3_10  and  O3_20 
REMARK    8  A    between atoms: C1_11  and  O4_12 
REMARK    9  A    between atoms: O4_12  and  C4_19 
REMARK   10  A    between atoms: C2_15  and  N_29 
REMARK   11  A    between atoms: C5_17  and  C6_21 
REMARK   12  A    between atoms: C6_23  and  O61_33 
REMARK   13  A    between atoms: O3_24  and  C3_26 
REMARK   14  A    between atoms: S1_27  and  N_29 
ROOT
ATOM      1  O5  SGN d5702      63.758  42.127  37.264  0.00  0.00    -0.350 OA
ATOM      2  C2  SGN d5702      66.081  41.824  37.788  0.00  0.00     0.160 C 
ATOM      3  C5  SGN d5702      64.037  42.802  36.062  0.00  0.00     0.181 C 
ATOM      4  C4  SGN d5702      65.395  42.318  35.516  0.00  0.00     0.186 C 
ATOM      5  C3  SGN d5702      66.473  42.641  36.585  0.00  0.00     0.173 C 
ATOM      6  C1  SGN d5702      64.726  42.268  38.308  0.00  0.00     0.278 C 
ENDROOT
BRANCH   4   7
ATOM      7  O4  SGN d5702      65.614  43.041  34.273  0.00  0.00    -0.348 OA
BRANCH   7   8
ATOM      8  C1  IDU d1623      66.026  42.483  33.042  0.00  0.00     0.294 C 
ATOM      9  O5  IDU d1623      65.095  41.485  32.512  0.00  0.00    -0.343 OA
ATOM     10  C5  IDU d1623      65.577  40.807  31.298  0.00  0.00     0.224 C 
ATOM     11  C4  IDU d1623      65.776  41.855  30.191  0.00  0.00     0.077 C 
ATOM     12  C3  IDU d1623      66.760  42.933  30.672  0.00  0.00     0.156 C 
ATOM     13  C2  IDU d1623      66.183  43.557  31.952  0.00  0.00     0.228 C 
BRANCH  10  14
ATOM     14  C6  IDU d1623      64.585  39.788  30.807  0.00  0.00     0.170 C 
ATOM     15  O62 IDU d1623      64.802  38.592  31.057  0.00  0.00    -0.648 OA
BRANCH  14  16
ATOM     16  O61 IDU d1623      63.594  40.201  30.171  0.00  0.00    -0.774 OA
ENDBRANCH  14  16
ENDBRANCH  10  14
BRANCH  12  18
ATOM     18  O3  IDU d1623      68.003  42.346  30.941  0.00  0.00    -0.393 OA
ATOM     19  H   IDU d1623      68.048  41.476  30.514  0.00  0.00     0.210 HD
ENDBRANCH  12  18
BRANCH  13  20
ATOM     20  O2  IDU d1623      64.905  44.087  31.690  0.00  0.00    -0.244 OA
BRANCH  20  21
ATOM     21  S   IDU d1623      64.642  45.772  31.993  0.00  0.00     0.252 S 
ATOM     22  O3S IDU d1623      65.835  46.393  32.433  0.00  0.00    -0.572 OA
ATOM     23  O1S IDU d1623      63.568  45.859  32.936  0.00  0.00    -0.572 OA
ATOM     24  O2S IDU d1623      64.257  46.463  30.771  0.00  0.00    -0.572 OA
ENDBRANCH  20  21
ENDBRANCH  13  20
ENDBRANCH   7   8
ENDBRANCH   4   7
BRANCH   3  25
ATOM     25  C6  SGN d5702      62.912  42.511  35.119  0.00  0.00     0.227 C 
BRANCH  25  26
ATOM     26  O6  SGN d5702      62.566  41.168  35.426  0.00  0.00    -0.254 OA
BRANCH  26  27
ATOM     27  S2  SGN d5702      60.909  40.795  35.762  0.00  0.00     0.251 S 
ATOM     28  O4S SGN d5702      60.291  40.135  34.658  0.00  0.00    -0.572 OA
ATOM     29  O5S SGN d5702      60.212  42.021  36.028  0.00  0.00    -0.572 OA
ATOM     30  O6S SGN d5702      60.943  39.908  36.888  0.00  0.00    -0.572 OA
ENDBRANCH  26  27
ENDBRANCH  25  26
ENDBRANCH   3  25
BRANCH   5  31
ATOM     31  O3  SGN d5702      67.734  42.205  36.138  0.00  0.00    -0.391 OA
ATOM     32  H   SGN d5702      68.405  42.417  36.806  0.00  0.00     0.210 HD
ENDBRANCH   5  31
BRANCH   2  33
ATOM     33  N   SGN d5702      67.025  42.009  38.840  0.00  0.00    -0.189 NA
ATOM     34  H   SGN d5702      66.539  42.381  39.657  0.00  0.00     0.143 HD
BRANCH  33  35
ATOM     35  S1  SGN d5702      67.819  40.496  39.289  0.00  0.00     0.183 S 
ATOM     36  O1S SGN d5702      66.938  39.760  40.175  0.00  0.00    -0.582 OA
ATOM     37  O2S SGN d5702      69.007  40.799  40.018  0.00  0.00    -0.582 OA
ATOM     38  O3S SGN d5702      68.084  39.819  38.033  0.00  0.00    -0.582 OA
ENDBRANCH  33  35
ENDBRANCH   2  33
BRANCH   6  39
ATOM     39  O1  SGN d5702      64.738  43.589  38.794  0.00  0.00    -0.369 OA
ATOM     40  H   SGN d5702      65.612  43.981  38.641  0.00  0.00     0.212 HD
ENDBRANCH   6  39
TORSDOF 14
ENDMDL
MODEL 42
REMARK VINA RESULT:      -3.7      2.967      7.896
REMARK  14 active torsions:
REMARK  status: ('A' for Active; 'I' for Inactive)
REMARK    1  A    between atoms: C5_1  and  C6_23 
REMARK    2  A    between atoms: S2_5  and  O6_7 
REMARK    3  A    between atoms: O1_6  and  C1_35 
REMARK    4  A    between atoms: O6_7  and  C6_21 
REMARK    5  A    between atoms: O2_9  and  C2_28 
REMARK    6  A    between atoms: O2_9  and  S_13 
REMARK    7  A    between atoms: C3_10  and  O3_20 
REMARK    8  A    between atoms: C1_11  and  O4_12 
REMARK    9  A    between atoms: O4_12  and  C4_19 
REMARK   10  A    between atoms: C2_15  and  N_29 
REMARK   11  A    between atoms: C5_17  and  C6_21 
REMARK   12  A    between atoms: C6_23  and  O61_33 
REMARK   13  A    between atoms: O3_24  and  C3_26 
REMARK   14  A    between atoms: S1_27  and  N_29 
ROOT
ATOM      1  O5  SGN d5702      61.623  40.757  37.197  0.00  0.00    -0.350 OA
ATOM      2  C2  SGN d5702      62.974  41.777  35.496  0.00  0.00     0.160 C 
ATOM      3  C5  SGN d5702      62.509  39.677  37.362  0.00  0.00     0.181 C 
ATOM      4  C4  SGN d5702      63.935  40.134  36.997  0.00  0.00     0.186 C 
ATOM      5  C3  SGN d5702      63.915  40.601  35.517  0.00  0.00     0.173 C 
ATOM      6  C1  SGN d5702      61.576  41.342  35.893  0.00  0.00     0.278 C 
ENDROOT
BRANCH   4   7
ATOM      7  O4  SGN d5702      64.797  38.981  37.203  0.00  0.00    -0.348 OA
BRANCH   7   8
ATOM      8  C1  IDU d1623      66.120  39.002  37.697  0.00  0.00     0.294 C 
ATOM      9  O5  IDU d1623      66.204  39.304  39.128  0.00  0.00    -0.343 OA
ATOM     10  C5  IDU d1623      67.582  39.454  39.624  0.00  0.00     0.224 C 
ATOM     11  C4  IDU d1623      68.334  38.131  39.407  0.00  0.00     0.077 C 
ATOM     12  C3  IDU d1623      68.301  37.757  37.917  0.00  0.00     0.156 C 
ATOM     13  C2  IDU d1623      66.828  37.653  37.493  0.00  0.00     0.228 C 
BRANCH  10  14
ATOM     14  C6  IDU d1623      67.604  39.774  41.094  0.00  0.00     0.170 C 
ATOM     15  O62 IDU d1623      68.634  39.512  41.735  0.00  0.00    -0.648 OA
BRANCH  14  16
ATOM     16  O61 IDU d1623      66.581  40.285  41.593  0.00  0.00    -0.774 OA
ENDBRANCH  14  16
ENDBRANCH  10  14
BRANCH  12  18
ATOM     18  O3  IDU d1623      68.948  38.750  37.171  0.00  0.00    -0.393 OA
ATOM     19  H   IDU d1623      69.702  38.361  36.701  0.00  0.00     0.210 HD
ENDBRANCH  12  18
BRANCH  13  20
ATOM     20  O2  IDU d1623      66.168  36.700  38.291  0.00  0.00    -0.244 OA
BRANCH  20  21
ATOM     21  S   IDU d1623      65.471  35.320  37.509  0.00  0.00     0.252 S 
ATOM     22  O3S IDU d1623      65.244  34.280  38.441  0.00  0.00    -0.572 OA
ATOM     23  O1S IDU d1623      66.360  34.956  36.447  0.00  0.00    -0.572 OA
ATOM     24  O2S IDU d1623      64.169  35.646  36.948  0.00  0.00    -0.572 OA
ENDBRANCH  20  21
ENDBRANCH  13  20
ENDBRANCH   7   8
ENDBRANCH   4   7
BRANCH   3  25
ATOM     25  C6  SGN d5702      62.404  39.233  38.788  0.00  0.00     0.227 C 
BRANCH  25  26
ATOM     26  O6  SGN d5702      62.178  37.835  38.681  0.00  0.00    -0.254 OA
BRANCH  26  27
ATOM     27  S2  SGN d5702      62.534  36.831  40.045  0.00  0.00     0.251 S 
ATOM     28  O4S SGN d5702      63.908  36.927  40.417  0.00  0.00    -0.572 OA
ATOM     29  O5S SGN d5702      62.233  35.471  39.699  0.00  0.00    -0.572 OA
ATOM     30  O6S SGN d5702      61.717  37.338  41.109  0.00  0.00    -0.572 OA
ENDBRANCH  26  27
ENDBRANCH  25  26
ENDBRANCH   3  25
BRANCH   5  31
ATOM     31  O3  SGN d5702      65.196  41.043  35.137  0.00  0.00    -0.391 OA
ATOM     32  H   SGN d5702      65.787  41.018  35.906  0.00  0.00     0.210 HD
ENDBRANCH   5  31
BRANCH   2  33
ATOM     33  N   SGN d5702      62.896  42.324  34.181  0.00  0.00    -0.189 NA
ATOM     34  H   SGN d5702      61.923  42.308  33.875  0.00  0.00     0.143 HD
BRANCH  33  35
ATOM     35  S1  SGN d5702      63.486  43.988  34.121  0.00  0.00     0.183 S 
ATOM     36  O1S SGN d5702      64.934  43.959  34.065  0.00  0.00    -0.582 OA
ATOM     37  O2S SGN d5702      63.116  44.650  35.329  0.00  0.00    -0.582 OA
ATOM     38  O3S SGN d5702      62.867  44.568  32.945  0.00  0.00    -0.582 OA
ENDBRANCH  33  35
ENDBRANCH   2  33
BRANCH   6  39
ATOM     39  O1  SGN d5702      61.005  40.445  34.970  0.00  0.00    -0.369 OA
ATOM     40  H   SGN d5702      61.442  40.544  34.110  0.00  0.00     0.212 HD
ENDBRANCH   6  39
TORSDOF 14
ENDMDL
MODEL 43
REMARK VINA RESULT:      -3.7      3.843      8.286
REMARK  14 active torsions:
REMARK  status: ('A' for Active; 'I' for Inactive)
REMARK    1  A    between atoms: C5_1  and  C6_23 
REMARK    2  A    between atoms: S2_5  and  O6_7 
REMARK    3  A    between atoms: O1_6  and  C1_35 
REMARK    4  A    between atoms: O6_7  and  C6_21 
REMARK    5  A    between atoms: O2_9  and  C2_28 
REMARK    6  A    between atoms: O2_9  and  S_13 
REMARK    7  A    between atoms: C3_10  and  O3_20 
REMARK    8  A    between atoms: C1_11  and  O4_12 
REMARK    9  A    between atoms: O4_12  and  C4_19 
REMARK   10  A    between atoms: C2_15  and  N_29 
REMARK   11  A    between atoms: C5_17  and  C6_21 
REMARK   12  A    between atoms: C6_23  and  O61_33 
REMARK   13  A    between atoms: O3_24  and  C3_26 
REMARK   14  A    between atoms: S1_27  and  N_29 
ROOT
ATOM      1  O5  SGN d5702      62.570  40.747  35.410  0.00  0.00    -0.350 OA
ATOM      2  C2  SGN d5702      63.662  42.560  34.276  0.00  0.00     0.160 C 
ATOM      3  C5  SGN d5702      63.181  41.047  36.641  0.00  0.00     0.181 C 
ATOM      4  C4  SGN d5702      63.493  42.556  36.695  0.00  0.00     0.186 C 
ATOM      5  C3  SGN d5702      64.452  42.879  35.518  0.00  0.00     0.173 C 
ATOM      6  C1  SGN d5702      63.316  41.083  34.237  0.00  0.00     0.278 C 
ENDROOT
BRANCH   4   7
ATOM      7  O4  SGN d5702      64.105  42.799  37.991  0.00  0.00    -0.348 OA
BRANCH   7   8
ATOM      8  C1  IDU d1623      63.940  43.950  38.793  0.00  0.00     0.294 C 
ATOM      9  O5  IDU d1623      62.569  44.136  39.273  0.00  0.00    -0.343 OA
ATOM     10  C5  IDU d1623      62.360  45.398  40.001  0.00  0.00     0.224 C 
ATOM     11  C4  IDU d1623      63.267  45.411  41.242  0.00  0.00     0.077 C 
ATOM     12  C3  IDU d1623      64.732  45.236  40.812  0.00  0.00     0.156 C 
ATOM     13  C2  IDU d1623      64.839  43.912  40.040  0.00  0.00     0.228 C 
BRANCH  10  14
ATOM     14  C6  IDU d1623      60.933  45.537  40.459  0.00  0.00     0.170 C 
ATOM     15  O62 IDU d1623      60.587  44.935  41.487  0.00  0.00    -0.648 OA
BRANCH  14  16
ATOM     16  O61 IDU d1623      60.172  46.253  39.776  0.00  0.00    -0.774 OA
ENDBRANCH  14  16
ENDBRANCH  10  14
BRANCH  12  18
ATOM     18  O3  IDU d1623      65.109  46.305  39.989  0.00  0.00    -0.393 OA
ATOM     19  H   IDU d1623      64.799  47.137  40.378  0.00  0.00     0.210 HD
ENDBRANCH  12  18
BRANCH  13  20
ATOM     20  O2  IDU d1623      64.396  42.850  40.851  0.00  0.00    -0.244 OA
BRANCH  20  21
ATOM     21  S   IDU d1623      65.564  41.686  41.384  0.00  0.00     0.252 S 
ATOM     22  O3S IDU d1623      66.663  42.329  42.002  0.00  0.00    -0.572 OA
ATOM     23  O1S IDU d1623      65.924  40.909  40.237  0.00  0.00    -0.572 OA
ATOM     24  O2S IDU d1623      64.994  40.807  42.394  0.00  0.00    -0.572 OA
ENDBRANCH  20  21
ENDBRANCH  13  20
ENDBRANCH   7   8
ENDBRANCH   4   7
BRANCH   3  25
ATOM     25  C6  SGN d5702      62.231  40.628  37.720  0.00  0.00     0.227 C 
BRANCH  25  26
ATOM     26  O6  SGN d5702      62.010  39.252  37.445  0.00  0.00    -0.254 OA
BRANCH  26  27
ATOM     27  S2  SGN d5702      63.002  38.078  38.241  0.00  0.00     0.251 S 
ATOM     28  O4S SGN d5702      64.109  37.695  37.426  0.00  0.00    -0.572 OA
ATOM     29  O5S SGN d5702      62.200  36.921  38.521  0.00  0.00    -0.572 OA
ATOM     30  O6S SGN d5702      63.484  38.731  39.423  0.00  0.00    -0.572 OA
ENDBRANCH  26  27
ENDBRANCH  25  26
ENDBRANCH   3  25
BRANCH   5  31
ATOM     31  O3  SGN d5702      64.759  44.252  35.514  0.00  0.00    -0.391 OA
ATOM     32  H   SGN d5702      63.937  44.767  35.477  0.00  0.00     0.210 HD
ENDBRANCH   5  31
BRANCH   2  33
ATOM     33  N   SGN d5702      64.431  42.851  33.112  0.00  0.00    -0.189 NA
ATOM     34  H   SGN d5702      64.445  42.027  32.511  0.00  0.00     0.143 HD
BRANCH  33  35
ATOM     35  S1  SGN d5702      63.763  44.209  32.201  0.00  0.00     0.183 S 
ATOM     36  O1S SGN d5702      63.126  43.692  31.006  0.00  0.00    -0.582 OA
ATOM     37  O2S SGN d5702      64.834  45.055  31.785  0.00  0.00    -0.582 OA
ATOM     38  O3S SGN d5702      62.847  44.865  33.115  0.00  0.00    -0.582 OA
ENDBRANCH  33  35
ENDBRANCH   2  33
BRANCH   6  39
ATOM     39  O1  SGN d5702      64.454  40.262  34.124  0.00  0.00    -0.369 OA
ATOM     40  H   SGN d5702      65.196  40.673  34.596  0.00  0.00     0.212 HD
ENDBRANCH   6  39
TORSDOF 14
ENDMDL
MODEL 44
REMARK VINA RESULT:      -3.7      3.926      6.918
REMARK  14 active torsions:
REMARK  status: ('A' for Active; 'I' for Inactive)
REMARK    1  A    between atoms: C5_1  and  C6_23 
REMARK    2  A    between atoms: S2_5  and  O6_7 
REMARK    3  A    between atoms: O1_6  and  C1_35 
REMARK    4  A    between atoms: O6_7  and  C6_21 
REMARK    5  A    between atoms: O2_9  and  C2_28 
REMARK    6  A    between atoms: O2_9  and  S_13 
REMARK    7  A    between atoms: C3_10  and  O3_20 
REMARK    8  A    between atoms: C1_11  and  O4_12 
REMARK    9  A    between atoms: O4_12  and  C4_19 
REMARK   10  A    between atoms: C2_15  and  N_29 
REMARK   11  A    between atoms: C5_17  and  C6_21 
REMARK   12  A    between atoms: C6_23  and  O61_33 
REMARK   13  A    between atoms: O3_24  and  C3_26 
REMARK   14  A    between atoms: S1_27  and  N_29 
ROOT
ATOM      1  O5  SGN d5702      60.889  44.885  37.858  0.00  0.00    -0.350 OA
ATOM      2  C2  SGN d5702      61.360  45.210  40.190  0.00  0.00     0.160 C 
ATOM      3  C5  SGN d5702      62.070  44.152  37.643  0.00  0.00     0.181 C 
ATOM      4  C4  SGN d5702      62.471  43.446  38.954  0.00  0.00     0.186 C 
ATOM      5  C3  SGN d5702      62.700  44.543  40.027  0.00  0.00     0.173 C 
ATOM      6  C1  SGN d5702      60.940  45.874  38.891  0.00  0.00     0.278 C 
ENDROOT
BRANCH   4   7
ATOM      7  O4  SGN d5702      63.683  42.698  38.658  0.00  0.00    -0.348 OA
BRANCH   7   8
ATOM      8  C1  IDU d1623      63.962  41.369  39.046  0.00  0.00     0.294 C 
ATOM      9  O5  IDU d1623      63.049  40.385  38.462  0.00  0.00    -0.343 OA
ATOM     10  C5  IDU d1623      63.251  39.015  38.960  0.00  0.00     0.224 C 
ATOM     11  C4  IDU d1623      64.676  38.562  38.602  0.00  0.00     0.077 C 
ATOM     12  C3  IDU d1623      65.696  39.544  39.200  0.00  0.00     0.156 C 
ATOM     13  C2  IDU d1623      65.383  40.941  38.643  0.00  0.00     0.228 C 
BRANCH  10  14
ATOM     14  C6  IDU d1623      62.280  38.053  38.332  0.00  0.00     0.170 C 
ATOM     15  O62 IDU d1623      61.313  38.519  37.710  0.00  0.00    -0.648 OA
BRANCH  14  16
ATOM     16  O61 IDU d1623      62.498  36.832  38.473  0.00  0.00    -0.774 OA
ENDBRANCH  14  16
ENDBRANCH  10  14
BRANCH  12  18
ATOM     18  O3  IDU d1623      65.580  39.545  40.595  0.00  0.00    -0.393 OA
ATOM     19  H   IDU d1623      64.660  39.728  40.843  0.00  0.00     0.210 HD
ENDBRANCH  12  18
BRANCH  13  20
ATOM     20  O2  IDU d1623      65.436  40.917  37.236  0.00  0.00    -0.244 OA
BRANCH  20  21
ATOM     21  S   IDU d1623      66.682  41.827  36.449  0.00  0.00     0.252 S 
ATOM     22  O3S IDU d1623      66.468  41.861  35.051  0.00  0.00    -0.572 OA
ATOM     23  O1S IDU d1623      67.928  41.229  36.824  0.00  0.00    -0.572 OA
ATOM     24  O2S IDU d1623      66.669  43.213  36.891  0.00  0.00    -0.572 OA
ENDBRANCH  20  21
ENDBRANCH  13  20
ENDBRANCH   7   8
ENDBRANCH   4   7
BRANCH   3  25
ATOM     25  C6  SGN d5702      61.792  43.179  36.539  0.00  0.00     0.227 C 
BRANCH  25  26
ATOM     26  O6  SGN d5702      61.790  43.994  35.376  0.00  0.00    -0.254 OA
BRANCH  26  27
ATOM     27  S2  SGN d5702      63.136  43.895  34.293  0.00  0.00     0.251 S 
ATOM     28  O4S SGN d5702      64.324  44.414  34.892  0.00  0.00    -0.572 OA
ATOM     29  O5S SGN d5702      62.829  44.658  33.117  0.00  0.00    -0.572 OA
ATOM     30  O6S SGN d5702      63.307  42.496  34.031  0.00  0.00    -0.572 OA
ENDBRANCH  26  27
ENDBRANCH  25  26
ENDBRANCH   3  25
BRANCH   5  31
ATOM     31  O3  SGN d5702      63.057  43.947  41.251  0.00  0.00    -0.391 OA
ATOM     32  H   SGN d5702      63.144  44.633  41.931  0.00  0.00     0.210 HD
ENDBRANCH   5  31
BRANCH   2  33
ATOM     33  N   SGN d5702      61.431  46.227  41.187  0.00  0.00    -0.189 NA
ATOM     34  H   SGN d5702      60.904  47.040  40.867  0.00  0.00     0.143 HD
BRANCH  33  35
ATOM     35  S1  SGN d5702      60.765  45.686  42.731  0.00  0.00     0.183 S 
ATOM     36  O1S SGN d5702      61.853  45.554  43.679  0.00  0.00    -0.582 OA
ATOM     37  O2S SGN d5702      60.189  44.394  42.555  0.00  0.00    -0.582 OA
ATOM     38  O3S SGN d5702      59.789  46.695  43.097  0.00  0.00    -0.582 OA
ENDBRANCH  33  35
ENDBRANCH   2  33
BRANCH   6  39
ATOM     39  O1  SGN d5702      61.793  46.931  38.521  0.00  0.00    -0.369 OA
ATOM     40  H   SGN d5702      62.172  46.749  37.647  0.00  0.00     0.212 HD
ENDBRANCH   6  39
TORSDOF 14
ENDMDL
MODEL 45
REMARK VINA RESULT:      -3.7      3.185      5.942
REMARK  14 active torsions:
REMARK  status: ('A' for Active; 'I' for Inactive)
REMARK    1  A    between atoms: C5_1  and  C6_23 
REMARK    2  A    between atoms: S2_5  and  O6_7 
REMARK    3  A    between atoms: O1_6  and  C1_35 
REMARK    4  A    between atoms: O6_7  and  C6_21 
REMARK    5  A    between atoms: O2_9  and  C2_28 
REMARK    6  A    between atoms: O2_9  and  S_13 
REMARK    7  A    between atoms: C3_10  and  O3_20 
REMARK    8  A    between atoms: C1_11  and  O4_12 
REMARK    9  A    between atoms: O4_12  and  C4_19 
REMARK   10  A    between atoms: C2_15  and  N_29 
REMARK   11  A    between atoms: C5_17  and  C6_21 
REMARK   12  A    between atoms: C6_23  and  O61_33 
REMARK   13  A    between atoms: O3_24  and  C3_26 
REMARK   14  A    between atoms: S1_27  and  N_29 
ROOT
ATOM      1  O5  SGN d5702      64.918  38.987  38.518  0.00  0.00    -0.350 OA
ATOM      2  C2  SGN d5702      62.728  38.033  38.752  0.00  0.00     0.160 C 
ATOM      3  C5  SGN d5702      64.463  40.020  37.679  0.00  0.00     0.181 C 
ATOM      4  C4  SGN d5702      62.988  40.326  38.011  0.00  0.00     0.186 C 
ATOM      5  C3  SGN d5702      62.173  39.028  37.767  0.00  0.00     0.173 C 
ATOM      6  C1  SGN d5702      64.190  37.757  38.457  0.00  0.00     0.278 C 
ENDROOT
BRANCH   4   7
ATOM      7  O4  SGN d5702      62.588  41.406  37.123  0.00  0.00    -0.348 OA
BRANCH   7   8
ATOM      8  C1  IDU d1623      61.870  42.567  37.488  0.00  0.00     0.294 C 
ATOM      9  O5  IDU d1623      62.548  43.380  38.499  0.00  0.00    -0.343 OA
ATOM     10  C5  IDU d1623      61.751  44.521  38.978  0.00  0.00     0.224 C 
ATOM     11  C4  IDU d1623      61.453  45.451  37.791  0.00  0.00     0.077 C 
ATOM     12  C3  IDU d1623      60.722  44.665  36.690  0.00  0.00     0.156 C 
ATOM     13  C2  IDU d1623      61.619  43.487  36.282  0.00  0.00     0.228 C 
BRANCH  10  14
ATOM     14  C6  IDU d1623      62.495  45.311  40.020  0.00  0.00     0.170 C 
ATOM     15  O62 IDU d1623      63.235  46.232  39.640  0.00  0.00    -0.648 OA
BRANCH  14  16
ATOM     16  O61 IDU d1623      62.327  44.997  41.216  0.00  0.00    -0.774 OA
ENDBRANCH  14  16
ENDBRANCH  10  14
BRANCH  12  18
ATOM     18  O3  IDU d1623      59.501  44.192  37.187  0.00  0.00    -0.393 OA
ATOM     19  H   IDU d1623      58.773  44.680  36.772  0.00  0.00     0.210 HD
ENDBRANCH  12  18
BRANCH  13  20
ATOM     20  O2  IDU d1623      62.869  43.967  35.847  0.00  0.00    -0.244 OA
BRANCH  20  21
ATOM     21  S   IDU d1623      63.384  43.568  34.241  0.00  0.00     0.252 S 
ATOM     22  O3S IDU d1623      62.864  44.494  33.306  0.00  0.00    -0.572 OA
ATOM     23  O1S IDU d1623      62.974  42.218  34.000  0.00  0.00    -0.572 OA
ATOM     24  O2S IDU d1623      64.832  43.653  34.127  0.00  0.00    -0.572 OA
ENDBRANCH  20  21
ENDBRANCH  13  20
ENDBRANCH   7   8
ENDBRANCH   4   7
BRANCH   3  25
ATOM     25  C6  SGN d5702      65.351  41.202  37.911  0.00  0.00     0.227 C 
BRANCH  25  26
ATOM     26  O6  SGN d5702      65.982  40.901  39.147  0.00  0.00    -0.254 OA
BRANCH  26  27
ATOM     27  S2  SGN d5702      65.673  41.927  40.507  0.00  0.00     0.251 S 
ATOM     28  O4S SGN d5702      66.808  42.003  41.369  0.00  0.00    -0.572 OA
ATOM     29  O5S SGN d5702      64.561  41.389  41.238  0.00  0.00    -0.572 OA
ATOM     30  O6S SGN d5702      65.410  43.222  39.950  0.00  0.00    -0.572 OA
ENDBRANCH  26  27
ENDBRANCH  25  26
ENDBRANCH   3  25
BRANCH   5  31
ATOM     31  O3  SGN d5702      60.817  39.251  38.069  0.00  0.00    -0.391 OA
ATOM     32  H   SGN d5702      60.589  38.791  38.892  0.00  0.00     0.210 HD
ENDBRANCH   5  31
BRANCH   2  33
ATOM     33  N   SGN d5702      62.029  36.794  38.651  0.00  0.00    -0.189 NA
ATOM     34  H   SGN d5702      62.258  36.359  37.756  0.00  0.00     0.143 HD
BRANCH  33  35
ATOM     35  S1  SGN d5702      62.462  35.682  39.953  0.00  0.00     0.183 S 
ATOM     36  O1S SGN d5702      62.094  36.290  41.217  0.00  0.00    -0.582 OA
ATOM     37  O2S SGN d5702      63.878  35.508  39.957  0.00  0.00    -0.582 OA
ATOM     38  O3S SGN d5702      61.743  34.457  39.662  0.00  0.00    -0.582 OA
ENDBRANCH  33  35
ENDBRANCH   2  33
BRANCH   6  39
ATOM     39  O1  SGN d5702      64.383  37.131  37.211  0.00  0.00    -0.369 OA
ATOM     40  H   SGN d5702      64.588  36.193  37.349  0.00  0.00     0.212 HD
ENDBRANCH   6  39
TORSDOF 14
ENDMDL
MODEL 46
REMARK VINA RESULT:      -3.7      2.855      5.204
REMARK  14 active torsions:
REMARK  status: ('A' for Active; 'I' for Inactive)
REMARK    1  A    between atoms: C5_1  and  C6_23 
REMARK    2  A    between atoms: S2_5  and  O6_7 
REMARK    3  A    between atoms: O1_6  and  C1_35 
REMARK    4  A    between atoms: O6_7  and  C6_21 
REMARK    5  A    between atoms: O2_9  and  C2_28 
REMARK    6  A    between atoms: O2_9  and  S_13 
REMARK    7  A    between atoms: C3_10  and  O3_20 
REMARK    8  A    between atoms: C1_11  and  O4_12 
REMARK    9  A    between atoms: O4_12  and  C4_19 
REMARK   10  A    between atoms: C2_15  and  N_29 
REMARK   11  A    between atoms: C5_17  and  C6_21 
REMARK   12  A    between atoms: C6_23  and  O61_33 
REMARK   13  A    between atoms: O3_24  and  C3_26 
REMARK   14  A    between atoms: S1_27  and  N_29 
ROOT
ATOM      1  O5  SGN d5702      61.989  39.734  36.682  0.00  0.00    -0.350 OA
ATOM      2  C2  SGN d5702      63.395  39.385  38.596  0.00  0.00     0.160 C 
ATOM      3  C5  SGN d5702      61.883  41.118  36.916  0.00  0.00     0.181 C 
ATOM      4  C4  SGN d5702      63.149  41.603  37.651  0.00  0.00     0.186 C 
ATOM      5  C3  SGN d5702      63.239  40.829  38.993  0.00  0.00     0.173 C 
ATOM      6  C1  SGN d5702      62.169  38.911  37.837  0.00  0.00     0.278 C 
ENDROOT
BRANCH   4   7
ATOM      7  O4  SGN d5702      62.981  43.034  37.846  0.00  0.00    -0.348 OA
BRANCH   7   8
ATOM      8  C1  IDU d1623      63.926  44.038  37.538  0.00  0.00     0.294 C 
ATOM      9  O5  IDU d1623      63.920  44.434  36.128  0.00  0.00    -0.343 OA
ATOM     10  C5  IDU d1623      64.985  45.384  35.772  0.00  0.00     0.224 C 
ATOM     11  C4  IDU d1623      64.797  46.671  36.592  0.00  0.00     0.077 C 
ATOM     12  C3  IDU d1623      64.810  46.334  38.091  0.00  0.00     0.156 C 
ATOM     13  C2  IDU d1623      63.686  45.319  38.353  0.00  0.00     0.228 C 
BRANCH  10  14
ATOM     14  C6  IDU d1623      64.934  45.745  34.312  0.00  0.00     0.170 C 
ATOM     15  O62 IDU d1623      66.001  45.784  33.681  0.00  0.00    -0.648 OA
BRANCH  14  16
ATOM     16  O61 IDU d1623      63.816  45.986  33.813  0.00  0.00    -0.774 OA
ENDBRANCH  14  16
ENDBRANCH  10  14
BRANCH  12  18
ATOM     18  O3  IDU d1623      66.049  45.779  38.435  0.00  0.00    -0.393 OA
ATOM     19  H   IDU d1623      66.700  45.994  37.749  0.00  0.00     0.210 HD
ENDBRANCH  12  18
BRANCH  13  20
ATOM     20  O2  IDU d1623      62.452  45.859  37.944  0.00  0.00    -0.244 OA
BRANCH  20  21
ATOM     21  S   IDU d1623      61.140  45.851  39.076  0.00  0.00     0.252 S 
ATOM     22  O3S IDU d1623      60.988  47.125  39.672  0.00  0.00    -0.572 OA
ATOM     23  O1S IDU d1623      61.414  44.806  40.016  0.00  0.00    -0.572 OA
ATOM     24  O2S IDU d1623      59.881  45.568  38.406  0.00  0.00    -0.572 OA
ENDBRANCH  20  21
ENDBRANCH  13  20
ENDBRANCH   7   8
ENDBRANCH   4   7
BRANCH   3  25
ATOM     25  C6  SGN d5702      61.713  41.780  35.584  0.00  0.00     0.227 C 
BRANCH  25  26
ATOM     26  O6  SGN d5702      62.336  40.875  34.686  0.00  0.00    -0.254 OA
BRANCH  26  27
ATOM     27  S2  SGN d5702      63.767  41.384  33.855  0.00  0.00     0.251 S 
ATOM     28  O4S SGN d5702      64.883  41.459  34.741  0.00  0.00    -0.572 OA
ATOM     29  O5S SGN d5702      63.526  42.681  33.289  0.00  0.00    -0.572 OA
ATOM     30  O6S SGN d5702      64.010  40.372  32.868  0.00  0.00    -0.572 OA
ENDBRANCH  26  27
ENDBRANCH  25  26
ENDBRANCH   3  25
BRANCH   5  31
ATOM     31  O3  SGN d5702      64.389  41.228  39.699  0.00  0.00    -0.391 OA
ATOM     32  H   SGN d5702      65.101  41.427  39.071  0.00  0.00     0.210 HD
ENDBRANCH   5  31
BRANCH   2  33
ATOM     33  N   SGN d5702      63.524  38.565  39.756  0.00  0.00    -0.189 NA
ATOM     34  H   SGN d5702      62.678  38.004  39.859  0.00  0.00     0.143 HD
BRANCH  33  35
ATOM     35  S1  SGN d5702      64.916  37.482  39.646  0.00  0.00     0.183 S 
ATOM     36  O1S SGN d5702      64.445  36.168  39.254  0.00  0.00    -0.582 OA
ATOM     37  O2S SGN d5702      65.504  37.359  40.940  0.00  0.00    -0.582 OA
ATOM     38  O3S SGN d5702      65.803  38.099  38.679  0.00  0.00    -0.582 OA
ENDBRANCH  33  35
ENDBRANCH   2  33
BRANCH   6  39
ATOM     39  O1  SGN d5702      61.006  38.912  38.630  0.00  0.00    -0.369 OA
ATOM     40  H   SGN d5702      60.284  38.483  38.145  0.00  0.00     0.212 HD
ENDBRANCH   6  39
TORSDOF 14
ENDMDL
MODEL 47
REMARK VINA RESULT:      -3.7      1.818      2.341
REMARK  14 active torsions:
REMARK  status: ('A' for Active; 'I' for Inactive)
REMARK    1  A    between atoms: C5_1  and  C6_23 
REMARK    2  A    between atoms: S2_5  and  O6_7 
REMARK    3  A    between atoms: O1_6  and  C1_35 
REMARK    4  A    between atoms: O6_7  and  C6_21 
REMARK    5  A    between atoms: O2_9  and  C2_28 
REMARK    6  A    between atoms: O2_9  and  S_13 
REMARK    7  A    between atoms: C3_10  and  O3_20 
REMARK    8  A    between atoms: C1_11  and  O4_12 
REMARK    9  A    between atoms: O4_12  and  C4_19 
REMARK   10  A    between atoms: C2_15  and  N_29 
REMARK   11  A    between atoms: C5_17  and  C6_21 
REMARK   12  A    between atoms: C6_23  and  O61_33 
REMARK   13  A    between atoms: O3_24  and  C3_26 
REMARK   14  A    between atoms: S1_27  and  N_29 
ROOT
ATOM      1  O5  SGN d5702      63.356  40.457  37.111  0.00  0.00    -0.350 OA
ATOM      2  C2  SGN d5702      65.641  39.833  37.500  0.00  0.00     0.160 C 
ATOM      3  C5  SGN d5702      63.689  41.293  36.028  0.00  0.00     0.181 C 
ATOM      4  C4  SGN d5702      64.978  40.769  35.365  0.00  0.00     0.186 C 
ATOM      5  C3  SGN d5702      66.101  40.795  36.437  0.00  0.00     0.173 C 
ATOM      6  C1  SGN d5702      64.350  40.321  38.130  0.00  0.00     0.278 C 
ENDROOT
BRANCH   4   7
ATOM      7  O4  SGN d5702      65.254  41.664  34.252  0.00  0.00    -0.348 OA
BRANCH   7   8
ATOM      8  C1  IDU d1623      65.663  41.284  32.954  0.00  0.00     0.294 C 
ATOM      9  O5  IDU d1623      64.768  40.313  32.321  0.00  0.00    -0.343 OA
ATOM     10  C5  IDU d1623      65.252  39.815  31.023  0.00  0.00     0.224 C 
ATOM     11  C4  IDU d1623      65.375  41.001  30.052  0.00  0.00     0.077 C 
ATOM     12  C3  IDU d1623      66.317  42.059  30.646  0.00  0.00     0.156 C 
ATOM     13  C2  IDU d1623      65.742  42.490  32.004  0.00  0.00     0.228 C 
BRANCH  10  14
ATOM     14  C6  IDU d1623      64.299  38.815  30.428  0.00  0.00     0.170 C 
ATOM     15  O62 IDU d1623      63.185  39.217  30.056  0.00  0.00    -0.648 OA
BRANCH  14  16
ATOM     16  O61 IDU d1623      64.680  37.630  30.341  0.00  0.00    -0.774 OA
ENDBRANCH  14  16
ENDBRANCH  10  14
BRANCH  12  18
ATOM     18  O3  IDU d1623      67.593  41.506  30.817  0.00  0.00    -0.393 OA
ATOM     19  H   IDU d1623      67.823  41.512  31.759  0.00  0.00     0.210 HD
ENDBRANCH  12  18
BRANCH  13  20
ATOM     20  O2  IDU d1623      64.434  42.983  31.833  0.00  0.00    -0.244 OA
BRANCH  20  21
ATOM     21  S   IDU d1623      64.143  44.658  32.166  0.00  0.00     0.252 S 
ATOM     22  O3S IDU d1623      65.217  45.216  32.900  0.00  0.00    -0.572 OA
ATOM     23  O1S IDU d1623      62.884  44.730  32.846  0.00  0.00    -0.572 OA
ATOM     24  O2S IDU d1623      64.060  45.424  30.932  0.00  0.00    -0.572 OA
ENDBRANCH  20  21
ENDBRANCH  13  20
ENDBRANCH   7   8
ENDBRANCH   4   7
BRANCH   3  25
ATOM     25  C6  SGN d5702      62.524  41.281  35.088  0.00  0.00     0.227 C 
BRANCH  25  26
ATOM     26  O6  SGN d5702      62.107  42.638  35.065  0.00  0.00    -0.254 OA
BRANCH  26  27
ATOM     27  S2  SGN d5702      60.774  43.112  36.062  0.00  0.00     0.251 S 
ATOM     28  O4S SGN d5702      59.883  43.980  35.361  0.00  0.00    -0.572 OA
ATOM     29  O5S SGN d5702      61.288  43.795  37.214  0.00  0.00    -0.572 OA
ATOM     30  O6S SGN d5702      60.092  41.892  36.385  0.00  0.00    -0.572 OA
ENDBRANCH  26  27
ENDBRANCH  25  26
ENDBRANCH   3  25
BRANCH   5  31
ATOM     31  O3  SGN d5702      67.301  40.312  35.883  0.00  0.00    -0.391 OA
ATOM     32  H   SGN d5702      67.297  40.459  34.924  0.00  0.00     0.210 HD
ENDBRANCH   5  31
BRANCH   2  33
ATOM     33  N   SGN d5702      66.616  39.739  38.537  0.00  0.00    -0.189 NA
ATOM     34  H   SGN d5702      66.173  39.972  39.427  0.00  0.00     0.143 HD
BRANCH  33  35
ATOM     35  S1  SGN d5702      67.307  38.118  38.651  0.00  0.00     0.183 S 
ATOM     36  O1S SGN d5702      67.371  37.552  37.318  0.00  0.00    -0.582 OA
ATOM     37  O2S SGN d5702      66.431  37.298  39.423  0.00  0.00    -0.582 OA
ATOM     38  O3S SGN d5702      68.605  38.300  39.272  0.00  0.00    -0.582 OA
ENDBRANCH  33  35
ENDBRANCH   2  33
BRANCH   6  39
ATOM     39  O1  SGN d5702      64.511  41.533  38.828  0.00  0.00    -0.369 OA
ATOM     40  H   SGN d5702      65.394  41.893  38.649  0.00  0.00     0.212 HD
ENDBRANCH   6  39
TORSDOF 14
ENDMDL
MODEL 48
REMARK VINA RESULT:      -3.6      2.973      6.823
REMARK  14 active torsions:
REMARK  status: ('A' for Active; 'I' for Inactive)
REMARK    1  A    between atoms: C5_1  and  C6_23 
REMARK    2  A    between atoms: S2_5  and  O6_7 
REMARK    3  A    between atoms: O1_6  and  C1_35 
REMARK    4  A    between atoms: O6_7  and  C6_21 
REMARK    5  A    between atoms: O2_9  and  C2_28 
REMARK    6  A    between atoms: O2_9  and  S_13 
REMARK    7  A    between atoms: C3_10  and  O3_20 
REMARK    8  A    between atoms: C1_11  and  O4_12 
REMARK    9  A    between atoms: O4_12  and  C4_19 
REMARK   10  A    between atoms: C2_15  and  N_29 
REMARK   11  A    between atoms: C5_17  and  C6_21 
REMARK   12  A    between atoms: C6_23  and  O61_33 
REMARK   13  A    between atoms: O3_24  and  C3_26 
REMARK   14  A    between atoms: S1_27  and  N_29 
ROOT
ATOM      1  O5  SGN d5702      66.349  42.024  31.908  0.00  0.00    -0.350 OA
ATOM      2  C2  SGN d5702      66.678  39.658  31.669  0.00  0.00     0.160 C 
ATOM      3  C5  SGN d5702      65.365  41.865  32.901  0.00  0.00     0.181 C 
ATOM      4  C4  SGN d5702      65.626  40.550  33.663  0.00  0.00     0.186 C 
ATOM      5  C3  SGN d5702      65.554  39.389  32.634  0.00  0.00     0.173 C 
ATOM      6  C1  SGN d5702      66.449  40.972  30.944  0.00  0.00     0.278 C 
ENDROOT
BRANCH   4   7
ATOM      7  O4  SGN d5702      64.589  40.455  34.678  0.00  0.00    -0.348 OA
BRANCH   7   8
ATOM      8  C1  IDU d1623      64.725  39.886  35.964  0.00  0.00     0.294 C 
ATOM      9  O5  IDU d1623      65.573  40.672  36.863  0.00  0.00    -0.343 OA
ATOM     10  C5  IDU d1623      65.824  40.024  38.161  0.00  0.00     0.224 C 
ATOM     11  C4  IDU d1623      64.482  39.821  38.883  0.00  0.00     0.077 C 
ATOM     12  C3  IDU d1623      63.542  38.986  38.000  0.00  0.00     0.156 C 
ATOM     13  C2  IDU d1623      63.367  39.730  36.667  0.00  0.00     0.228 C 
BRANCH  10  14
ATOM     14  C6  IDU d1623      66.707  40.872  39.036  0.00  0.00     0.170 C 
ATOM     15  O62 IDU d1623      67.885  40.518  39.197  0.00  0.00    -0.648 OA
BRANCH  14  16
ATOM     16  O61 IDU d1623      66.204  41.889  39.556  0.00  0.00    -0.774 OA
ENDBRANCH  14  16
ENDBRANCH  10  14
BRANCH  12  18
ATOM     18  O3  IDU d1623      64.108  37.725  37.777  0.00  0.00    -0.393 OA
ATOM     19  H   IDU d1623      63.416  37.047  37.826  0.00  0.00     0.210 HD
ENDBRANCH  12  18
BRANCH  13  20
ATOM     20  O2  IDU d1623      62.860  41.022  36.904  0.00  0.00    -0.244 OA
BRANCH  20  21
ATOM     21  S   IDU d1623      61.617  41.617  35.855  0.00  0.00     0.252 S 
ATOM     22  O3S IDU d1623      62.061  42.765  35.156  0.00  0.00    -0.572 OA
ATOM     23  O1S IDU d1623      60.465  41.852  36.672  0.00  0.00    -0.572 OA
ATOM     24  O2S IDU d1623      61.285  40.633  34.836  0.00  0.00    -0.572 OA
ENDBRANCH  20  21
ENDBRANCH  13  20
ENDBRANCH   7   8
ENDBRANCH   4   7
BRANCH   3  25
ATOM     25  C6  SGN d5702      65.444  43.061  33.797  0.00  0.00     0.227 C 
BRANCH  25  26
ATOM     26  O6  SGN d5702      65.327  44.154  32.897  0.00  0.00    -0.254 OA
BRANCH  26  27
ATOM     27  S2  SGN d5702      63.972  45.219  33.057  0.00  0.00     0.251 S 
ATOM     28  O4S SGN d5702      64.141  46.396  32.269  0.00  0.00    -0.572 OA
ATOM     29  O5S SGN d5702      63.846  45.590  34.438  0.00  0.00    -0.572 OA
ATOM     30  O6S SGN d5702      62.849  44.475  32.567  0.00  0.00    -0.572 OA
ENDBRANCH  26  27
ENDBRANCH  25  26
ENDBRANCH   3  25
BRANCH   5  31
ATOM     31  O3  SGN d5702      65.799  38.163  33.279  0.00  0.00    -0.391 OA
ATOM     32  H   SGN d5702      66.145  38.329  34.169  0.00  0.00     0.210 HD
ENDBRANCH   5  31
BRANCH   2  33
ATOM     33  N   SGN d5702      66.740  38.630  30.683  0.00  0.00    -0.189 NA
ATOM     34  H   SGN d5702      66.709  39.059  29.757  0.00  0.00     0.143 HD
BRANCH  33  35
ATOM     35  S1  SGN d5702      68.218  37.672  30.819  0.00  0.00     0.183 S 
ATOM     36  O1S SGN d5702      69.344  38.512  30.459  0.00  0.00    -0.582 OA
ATOM     37  O2S SGN d5702      68.161  36.603  29.876  0.00  0.00    -0.582 OA
ATOM     38  O3S SGN d5702      68.247  37.212  32.194  0.00  0.00    -0.582 OA
ENDBRANCH  33  35
ENDBRANCH   2  33
BRANCH   6  39
ATOM     39  O1  SGN d5702      65.306  40.946  30.122  0.00  0.00    -0.369 OA
ATOM     40  H   SGN d5702      64.515  40.835  30.672  0.00  0.00     0.212 HD
ENDBRANCH   6  39
TORSDOF 14
ENDMDL
MODEL 49
REMARK VINA RESULT:      -3.6      3.217      5.521
REMARK  14 active torsions:
REMARK  status: ('A' for Active; 'I' for Inactive)
REMARK    1  A    between atoms: C5_1  and  C6_23 
REMARK    2  A    between atoms: S2_5  and  O6_7 
REMARK    3  A    between atoms: O1_6  and  C1_35 
REMARK    4  A    between atoms: O6_7  and  C6_21 
REMARK    5  A    between atoms: O2_9  and  C2_28 
REMARK    6  A    between atoms: O2_9  and  S_13 
REMARK    7  A    between atoms: C3_10  and  O3_20 
REMARK    8  A    between atoms: C1_11  and  O4_12 
REMARK    9  A    between atoms: O4_12  and  C4_19 
REMARK   10  A    between atoms: C2_15  and  N_29 
REMARK   11  A    between atoms: C5_17  and  C6_21 
REMARK   12  A    between atoms: C6_23  and  O61_33 
REMARK   13  A    between atoms: O3_24  and  C3_26 
REMARK   14  A    between atoms: S1_27  and  N_29 
ROOT
ATOM      1  O5  SGN d5702      64.258  38.924  40.143  0.00  0.00    -0.350 OA
ATOM      2  C2  SGN d5702      65.166  41.096  40.609  0.00  0.00     0.160 C 
ATOM      3  C5  SGN d5702      63.594  39.365  38.984  0.00  0.00     0.181 C 
ATOM      4  C4  SGN d5702      64.364  40.559  38.385  0.00  0.00     0.186 C 
ATOM      5  C3  SGN d5702      64.394  41.682  39.456  0.00  0.00     0.173 C 
ATOM      6  C1  SGN d5702      64.434  39.895  41.178  0.00  0.00     0.278 C 
ENDROOT
BRANCH   4   7
ATOM      7  O4  SGN d5702      63.637  40.953  37.189  0.00  0.00    -0.348 OA
BRANCH   7   8
ATOM      8  C1  IDU d1623      64.201  41.282  35.936  0.00  0.00     0.294 C 
ATOM      9  O5  IDU d1623      64.922  40.172  35.310  0.00  0.00    -0.343 OA
ATOM     10  C5  IDU d1623      65.620  40.540  34.069  0.00  0.00     0.224 C 
ATOM     11  C4  IDU d1623      64.584  41.027  33.043  0.00  0.00     0.077 C 
ATOM     12  C3  IDU d1623      63.795  42.209  33.627  0.00  0.00     0.156 C 
ATOM     13  C2  IDU d1623      63.131  41.732  34.928  0.00  0.00     0.228 C 
BRANCH  10  14
ATOM     14  C6  IDU d1623      66.350  39.364  33.479  0.00  0.00     0.170 C 
ATOM     15  O62 IDU d1623      65.911  38.869  32.429  0.00  0.00    -0.648 OA
BRANCH  14  16
ATOM     16  O61 IDU d1623      67.360  38.947  34.081  0.00  0.00    -0.774 OA
ENDBRANCH  14  16
ENDBRANCH  10  14
BRANCH  12  18
ATOM     18  O3  IDU d1623      64.671  43.269  33.894  0.00  0.00    -0.393 OA
ATOM     19  H   IDU d1623      64.167  44.095  33.963  0.00  0.00     0.210 HD
ENDBRANCH  12  18
BRANCH  13  20
ATOM     20  O2  IDU d1623      62.303  40.625  34.663  0.00  0.00    -0.244 OA
BRANCH  20  21
ATOM     21  S   IDU d1623      60.745  40.570  35.417  0.00  0.00     0.252 S 
ATOM     22  O3S IDU d1623      60.847  40.074  36.739  0.00  0.00    -0.572 OA
ATOM     23  O1S IDU d1623      59.904  39.778  34.570  0.00  0.00    -0.572 OA
ATOM     24  O2S IDU d1623      60.179  41.905  35.533  0.00  0.00    -0.572 OA
ENDBRANCH  20  21
ENDBRANCH  13  20
ENDBRANCH   7   8
ENDBRANCH   4   7
BRANCH   3  25
ATOM     25  C6  SGN d5702      63.531  38.203  38.041  0.00  0.00     0.227 C 
BRANCH  25  26
ATOM     26  O6  SGN d5702      62.324  37.550  38.406  0.00  0.00    -0.254 OA
BRANCH  26  27
ATOM     27  S2  SGN d5702      62.413  35.951  39.064  0.00  0.00     0.251 S 
ATOM     28  O4S SGN d5702      61.536  35.058  38.379  0.00  0.00    -0.572 OA
ATOM     29  O5S SGN d5702      62.039  36.009  40.449  0.00  0.00    -0.572 OA
ATOM     30  O6S SGN d5702      63.769  35.535  38.861  0.00  0.00    -0.572 OA
ENDBRANCH  26  27
ENDBRANCH  25  26
ENDBRANCH   3  25
BRANCH   5  31
ATOM     31  O3  SGN d5702      65.100  42.795  38.962  0.00  0.00    -0.391 OA
ATOM     32  H   SGN d5702      66.025  42.744  39.248  0.00  0.00     0.210 HD
ENDBRANCH   5  31
BRANCH   2  33
ATOM     33  N   SGN d5702      65.295  42.055  41.656  0.00  0.00    -0.189 NA
ATOM     34  H   SGN d5702      64.892  41.668  42.509  0.00  0.00     0.143 HD
BRANCH  33  35
ATOM     35  S1  SGN d5702      66.982  42.477  41.962  0.00  0.00     0.183 S 
ATOM     36  O1S SGN d5702      67.602  42.834  40.701  0.00  0.00    -0.582 OA
ATOM     37  O2S SGN d5702      67.660  41.326  42.463  0.00  0.00    -0.582 OA
ATOM     38  O3S SGN d5702      66.935  43.565  42.920  0.00  0.00    -0.582 OA
ENDBRANCH  33  35
ENDBRANCH   2  33
BRANCH   6  39
ATOM     39  O1  SGN d5702      63.194  40.237  41.750  0.00  0.00    -0.369 OA
ATOM     40  H   SGN d5702      63.327  40.510  42.671  0.00  0.00     0.212 HD
ENDBRANCH   6  39
TORSDOF 14
ENDMDL
MODEL 50
REMARK VINA RESULT:      -3.6      3.197      7.844
REMARK  14 active torsions:
REMARK  status: ('A' for Active; 'I' for Inactive)
REMARK    1  A    between atoms: C5_1  and  C6_23 
REMARK    2  A    between atoms: S2_5  and  O6_7 
REMARK    3  A    between atoms: O1_6  and  C1_35 
REMARK    4  A    between atoms: O6_7  and  C6_21 
REMARK    5  A    between atoms: O2_9  and  C2_28 
REMARK    6  A    between atoms: O2_9  and  S_13 
REMARK    7  A    between atoms: C3_10  and  O3_20 
REMARK    8  A    between atoms: C1_11  and  O4_12 
REMARK    9  A    between atoms: O4_12  and  C4_19 
REMARK   10  A    between atoms: C2_15  and  N_29 
REMARK   11  A    between atoms: C5_17  and  C6_21 
REMARK   12  A    between atoms: C6_23  and  O61_33 
REMARK   13  A    between atoms: O3_24  and  C3_26 
REMARK   14  A    between atoms: S1_27  and  N_29 
ROOT
ATOM      1  O5  SGN d5702      63.443  42.006  33.367  0.00  0.00    -0.350 OA
ATOM      2  C2  SGN d5702      64.841  43.950  33.201  0.00  0.00     0.160 C 
ATOM      3  C5  SGN d5702      64.166  41.484  34.456  0.00  0.00     0.181 C 
ATOM      4  C4  SGN d5702      64.798  42.648  35.245  0.00  0.00     0.186 C 
ATOM      5  C3  SGN d5702      65.743  43.412  34.280  0.00  0.00     0.173 C 
ATOM      6  C1  SGN d5702      64.184  42.810  32.445  0.00  0.00     0.278 C 
ENDROOT
BRANCH   4   7
ATOM      7  O4  SGN d5702      65.512  42.043  36.358  0.00  0.00    -0.348 OA
BRANCH   7   8
ATOM      8  C1  IDU d1623      65.572  42.534  37.681  0.00  0.00     0.294 C 
ATOM      9  O5  IDU d1623      64.261  42.649  38.322  0.00  0.00    -0.343 OA
ATOM     10  C5  IDU d1623      64.301  43.279  39.651  0.00  0.00     0.224 C 
ATOM     11  C4  IDU d1623      65.173  42.420  40.581  0.00  0.00     0.077 C 
ATOM     12  C3  IDU d1623      66.578  42.269  39.978  0.00  0.00     0.156 C 
ATOM     13  C2  IDU d1623      66.425  41.632  38.588  0.00  0.00     0.228 C 
BRANCH  10  14
ATOM     14  C6  IDU d1623      62.926  43.378  40.254  0.00  0.00     0.170 C 
ATOM     15  O62 IDU d1623      62.618  42.574  41.147  0.00  0.00    -0.648 OA
BRANCH  14  16
ATOM     16  O61 IDU d1623      62.165  44.267  39.820  0.00  0.00    -0.774 OA
ENDBRANCH  14  16
ENDBRANCH  10  14
BRANCH  12  18
ATOM     18  O3  IDU d1623      67.177  43.530  39.866  0.00  0.00    -0.393 OA
ATOM     19  H   IDU d1623      68.129  43.451  40.035  0.00  0.00     0.210 HD
ENDBRANCH  12  18
BRANCH  13  20
ATOM     20  O2  IDU d1623      65.763  40.395  38.700  0.00  0.00    -0.244 OA
BRANCH  20  21
ATOM     21  S   IDU d1623      66.499  39.005  37.973  0.00  0.00     0.252 S 
ATOM     22  O3S IDU d1623      67.838  39.281  37.610  0.00  0.00    -0.572 OA
ATOM     23  O1S IDU d1623      65.670  38.630  36.868  0.00  0.00    -0.572 OA
ATOM     24  O2S IDU d1623      66.560  37.899  38.917  0.00  0.00    -0.572 OA
ENDBRANCH  20  21
ENDBRANCH  13  20
ENDBRANCH   7   8
ENDBRANCH   4   7
BRANCH   3  25
ATOM     25  C6  SGN d5702      63.204  40.693  35.286  0.00  0.00     0.227 C 
BRANCH  25  26
ATOM     26  O6  SGN d5702      61.935  41.171  34.865  0.00  0.00    -0.254 OA
BRANCH  26  27
ATOM     27  S2  SGN d5702      61.131  42.356  35.837  0.00  0.00     0.251 S 
ATOM     28  O4S SGN d5702      61.484  43.681  35.440  0.00  0.00    -0.572 OA
ATOM     29  O5S SGN d5702      61.513  42.156  37.206  0.00  0.00    -0.572 OA
ATOM     30  O6S SGN d5702      59.732  42.147  35.604  0.00  0.00    -0.572 OA
ENDBRANCH  26  27
ENDBRANCH  25  26
ENDBRANCH   3  25
BRANCH   5  31
ATOM     31  O3  SGN d5702      66.337  44.496  34.952  0.00  0.00    -0.391 OA
ATOM     32  H   SGN d5702      67.160  44.744  34.502  0.00  0.00     0.210 HD
ENDBRANCH   5  31
BRANCH   2  33
ATOM     33  N   SGN d5702      65.595  44.711  32.260  0.00  0.00    -0.189 NA
ATOM     34  H   SGN d5702      65.426  44.339  31.325  0.00  0.00     0.143 HD
BRANCH  33  35
ATOM     35  S1  SGN d5702      65.150  46.420  32.283  0.00  0.00     0.183 S 
ATOM     36  O1S SGN d5702      65.446  46.989  30.983  0.00  0.00    -0.582 OA
ATOM     37  O2S SGN d5702      65.963  47.093  33.242  0.00  0.00    -0.582 OA
ATOM     38  O3S SGN d5702      63.740  46.441  32.624  0.00  0.00    -0.582 OA
ENDBRANCH  33  35
ENDBRANCH   2  33
BRANCH   6  39
ATOM     39  O1  SGN d5702      65.112  42.023  31.738  0.00  0.00    -0.369 OA
ATOM     40  H   SGN d5702      65.261  42.410  30.861  0.00  0.00     0.212 HD
ENDBRANCH   6  39
TORSDOF 14
ENDMDL
MODEL 51
REMARK VINA RESULT:      -3.6      2.885      6.161
REMARK  14 active torsions:
REMARK  status: ('A' for Active; 'I' for Inactive)
REMARK    1  A    between atoms: C5_1  and  C6_23 
REMARK    2  A    between atoms: S2_5  and  O6_7 
REMARK    3  A    between atoms: O1_6  and  C1_35 
REMARK    4  A    between atoms: O6_7  and  C6_21 
REMARK    5  A    between atoms: O2_9  and  C2_28 
REMARK    6  A    between atoms: O2_9  and  S_13 
REMARK    7  A    between atoms: C3_10  and  O3_20 
REMARK    8  A    between atoms: C1_11  and  O4_12 
REMARK    9  A    between atoms: O4_12  and  C4_19 
REMARK   10  A    between atoms: C2_15  and  N_29 
REMARK   11  A    between atoms: C5_17  and  C6_21 
REMARK   12  A    between atoms: C6_23  and  O61_33 
REMARK   13  A    between atoms: O3_24  and  C3_26 
REMARK   14  A    between atoms: S1_27  and  N_29 
ROOT
ATOM      1  O5  SGN d5702      62.849  40.014  38.241  0.00  0.00    -0.350 OA
ATOM      2  C2  SGN d5702      61.728  41.470  36.696  0.00  0.00     0.160 C 
ATOM      3  C5  SGN d5702      63.591  39.382  37.227  0.00  0.00     0.181 C 
ATOM      4  C4  SGN d5702      63.792  40.369  36.060  0.00  0.00     0.186 C 
ATOM      5  C3  SGN d5702      62.386  40.770  35.536  0.00  0.00     0.173 C 
ATOM      6  C1  SGN d5702      61.563  40.515  37.864  0.00  0.00     0.278 C 
ENDROOT
BRANCH   4   7
ATOM      7  O4  SGN d5702      64.574  39.661  35.059  0.00  0.00    -0.348 OA
BRANCH   7   8
ATOM      8  C1  IDU d1623      65.612  40.204  34.269  0.00  0.00     0.294 C 
ATOM      9  O5  IDU d1623      66.855  40.425  35.010  0.00  0.00    -0.343 OA
ATOM     10  C5  IDU d1623      67.900  41.108  34.229  0.00  0.00     0.224 C 
ATOM     11  C4  IDU d1623      68.259  40.238  33.014  0.00  0.00     0.077 C 
ATOM     12  C3  IDU d1623      66.998  39.977  32.175  0.00  0.00     0.156 C 
ATOM     13  C2  IDU d1623      65.965  39.292  33.083  0.00  0.00     0.228 C 
BRANCH  10  14
ATOM     14  C6  IDU d1623      69.147  41.316  35.045  0.00  0.00     0.170 C 
ATOM     15  O62 IDU d1623      69.970  42.157  34.652  0.00  0.00    -0.648 OA
BRANCH  14  16
ATOM     16  O61 IDU d1623      69.288  40.627  36.075  0.00  0.00    -0.774 OA
ENDBRANCH  14  16
ENDBRANCH  10  14
BRANCH  12  18
ATOM     18  O3  IDU d1623      66.491  41.194  31.702  0.00  0.00    -0.393 OA
ATOM     19  H   IDU d1623      66.528  41.204  30.733  0.00  0.00     0.210 HD
ENDBRANCH  12  18
BRANCH  13  20
ATOM     20  O2  IDU d1623      66.506  38.103  33.608  0.00  0.00    -0.244 OA
BRANCH  20  21
ATOM     21  S   IDU d1623      66.241  36.630  32.736  0.00  0.00     0.252 S 
ATOM     22  O3S IDU d1623      65.613  35.666  33.560  0.00  0.00    -0.572 OA
ATOM     23  O1S IDU d1623      67.516  36.213  32.234  0.00  0.00    -0.572 OA
ATOM     24  O2S IDU d1623      65.339  36.847  31.615  0.00  0.00    -0.572 OA
ENDBRANCH  20  21
ENDBRANCH  13  20
ENDBRANCH   7   8
ENDBRANCH   4   7
BRANCH   3  25
ATOM     25  C6  SGN d5702      64.890  38.951  37.833  0.00  0.00     0.227 C 
BRANCH  25  26
ATOM     26  O6  SGN d5702      65.060  39.849  38.919  0.00  0.00    -0.254 OA
BRANCH  26  27
ATOM     27  S2  SGN d5702      66.511  40.790  38.997  0.00  0.00     0.251 S 
ATOM     28  O4S SGN d5702      66.642  41.439  40.262  0.00  0.00    -0.572 OA
ATOM     29  O5S SGN d5702      66.466  41.782  37.961  0.00  0.00    -0.572 OA
ATOM     30  O6S SGN d5702      67.580  39.848  38.833  0.00  0.00    -0.572 OA
ENDBRANCH  26  27
ENDBRANCH  25  26
ENDBRANCH   3  25
BRANCH   5  31
ATOM     31  O3  SGN d5702      62.515  41.684  34.474  0.00  0.00    -0.391 OA
ATOM     32  H   SGN d5702      62.453  41.210  33.630  0.00  0.00     0.210 HD
ENDBRANCH   5  31
BRANCH   2  33
ATOM     33  N   SGN d5702      60.427  41.923  36.326  0.00  0.00    -0.189 NA
ATOM     34  H   SGN d5702      59.762  41.635  37.044  0.00  0.00     0.143 HD
BRANCH  33  35
ATOM     35  S1  SGN d5702      60.362  43.681  36.161  0.00  0.00     0.183 S 
ATOM     36  O1S SGN d5702      59.515  44.209  37.212  0.00  0.00    -0.582 OA
ATOM     37  O2S SGN d5702      59.751  44.003  34.914  0.00  0.00    -0.582 OA
ATOM     38  O3S SGN d5702      61.742  44.122  36.245  0.00  0.00    -0.582 OA
ENDBRANCH  33  35
ENDBRANCH   2  33
BRANCH   6  39
ATOM     39  O1  SGN d5702      60.684  39.453  37.576  0.00  0.00    -0.369 OA
ATOM     40  H   SGN d5702      60.058  39.345  38.309  0.00  0.00     0.212 HD
ENDBRANCH   6  39
TORSDOF 14
ENDMDL
MODEL 52
REMARK VINA RESULT:      -3.6      3.211      5.964
REMARK  14 active torsions:
REMARK  status: ('A' for Active; 'I' for Inactive)
REMARK    1  A    between atoms: C5_1  and  C6_23 
REMARK    2  A    between atoms: S2_5  and  O6_7 
REMARK    3  A    between atoms: O1_6  and  C1_35 
REMARK    4  A    between atoms: O6_7  and  C6_21 
REMARK    5  A    between atoms: O2_9  and  C2_28 
REMARK    6  A    between atoms: O2_9  and  S_13 
REMARK    7  A    between atoms: C3_10  and  O3_20 
REMARK    8  A    between atoms: C1_11  and  O4_12 
REMARK    9  A    between atoms: O4_12  and  C4_19 
REMARK   10  A    between atoms: C2_15  and  N_29 
REMARK   11  A    between atoms: C5_17  and  C6_21 
REMARK   12  A    between atoms: C6_23  and  O61_33 
REMARK   13  A    between atoms: O3_24  and  C3_26 
REMARK   14  A    between atoms: S1_27  and  N_29 
ROOT
ATOM      1  O5  SGN d5702      63.464  39.903  40.663  0.00  0.00    -0.350 OA
ATOM      2  C2  SGN d5702      63.664  42.264  41.047  0.00  0.00     0.160 C 
ATOM      3  C5  SGN d5702      62.998  40.079  39.347  0.00  0.00     0.181 C 
ATOM      4  C4  SGN d5702      63.561  41.400  38.785  0.00  0.00     0.186 C 
ATOM      5  C3  SGN d5702      63.059  42.550  39.698  0.00  0.00     0.173 C 
ATOM      6  C1  SGN d5702      63.145  40.945  41.589  0.00  0.00     0.278 C 
ENDROOT
BRANCH   4   7
ATOM      7  O4  SGN d5702      63.056  41.511  37.426  0.00  0.00    -0.348 OA
BRANCH   7   8
ATOM      8  C1  IDU d1623      63.818  41.793  36.270  0.00  0.00     0.294 C 
ATOM      9  O5  IDU d1623      64.774  40.738  35.928  0.00  0.00    -0.343 OA
ATOM     10  C5  IDU d1623      65.660  41.079  34.803  0.00  0.00     0.224 C 
ATOM     11  C4  IDU d1623      64.801  41.319  33.551  0.00  0.00     0.077 C 
ATOM     12  C3  IDU d1623      63.779  42.432  33.831  0.00  0.00     0.156 C 
ATOM     13  C2  IDU d1623      62.928  41.995  35.033  0.00  0.00     0.228 C 
BRANCH  10  14
ATOM     14  C6  IDU d1623      66.624  39.963  34.505  0.00  0.00     0.170 C 
ATOM     15  O62 IDU d1623      67.012  39.257  35.449  0.00  0.00    -0.648 OA
BRANCH  14  16
ATOM     16  O61 IDU d1623      66.985  39.809  33.321  0.00  0.00    -0.774 OA
ENDBRANCH  14  16
ENDBRANCH  10  14
BRANCH  12  18
ATOM     18  O3  IDU d1623      64.454  43.623  34.128  0.00  0.00    -0.393 OA
ATOM     19  H   IDU d1623      63.967  44.373  33.753  0.00  0.00     0.210 HD
ENDBRANCH  12  18
BRANCH  13  20
ATOM     20  O2  IDU d1623      62.304  40.764  34.753  0.00  0.00    -0.244 OA
BRANCH  20  21
ATOM     21  S   IDU d1623      60.696  40.509  35.345  0.00  0.00     0.252 S 
ATOM     22  O3S IDU d1623      59.956  39.701  34.450  0.00  0.00    -0.572 OA
ATOM     23  O1S IDU d1623      60.124  41.804  35.556  0.00  0.00    -0.572 OA
ATOM     24  O2S IDU d1623      60.719  39.789  36.609  0.00  0.00    -0.572 OA
ENDBRANCH  20  21
ENDBRANCH  13  20
ENDBRANCH   7   8
ENDBRANCH   4   7
BRANCH   3  25
ATOM     25  C6  SGN d5702      63.449  38.890  38.556  0.00  0.00     0.227 C 
BRANCH  25  26
ATOM     26  O6  SGN d5702      62.436  37.928  38.803  0.00  0.00    -0.254 OA
BRANCH  26  27
ATOM     27  S2  SGN d5702      62.905  36.343  39.318  0.00  0.00     0.251 S 
ATOM     28  O4S SGN d5702      62.018  35.837  40.315  0.00  0.00    -0.572 OA
ATOM     29  O5S SGN d5702      64.232  36.416  39.859  0.00  0.00    -0.572 OA
ATOM     30  O6S SGN d5702      62.817  35.524  38.144  0.00  0.00    -0.572 OA
ENDBRANCH  26  27
ENDBRANCH  25  26
ENDBRANCH   3  25
BRANCH   5  31
ATOM     31  O3  SGN d5702      63.557  43.781  39.234  0.00  0.00    -0.391 OA
ATOM     32  H   SGN d5702      62.852  44.446  39.260  0.00  0.00     0.210 HD
ENDBRANCH   5  31
BRANCH   2  33
ATOM     33  N   SGN d5702      63.301  43.282  41.978  0.00  0.00    -0.189 NA
ATOM     34  H   SGN d5702      62.824  42.850  42.769  0.00  0.00     0.143 HD
BRANCH  33  35
ATOM     35  S1  SGN d5702      64.710  44.165  42.574  0.00  0.00     0.183 S 
ATOM     36  O1S SGN d5702      65.460  44.655  41.435  0.00  0.00    -0.582 OA
ATOM     37  O2S SGN d5702      65.552  43.260  43.286  0.00  0.00    -0.582 OA
ATOM     38  O3S SGN d5702      64.171  45.216  43.416  0.00  0.00    -0.582 OA
ENDBRANCH  33  35
ENDBRANCH   2  33
BRANCH   6  39
ATOM     39  O1  SGN d5702      61.761  40.970  41.846  0.00  0.00    -0.369 OA
ATOM     40  H   SGN d5702      61.282  41.135  41.019  0.00  0.00     0.212 HD
ENDBRANCH   6  39
TORSDOF 14
ENDMDL
MODEL 53
REMARK VINA RESULT:      -3.6      3.713      7.373
REMARK  14 active torsions:
REMARK  status: ('A' for Active; 'I' for Inactive)
REMARK    1  A    between atoms: C5_1  and  C6_23 
REMARK    2  A    between atoms: S2_5  and  O6_7 
REMARK    3  A    between atoms: O1_6  and  C1_35 
REMARK    4  A    between atoms: O6_7  and  C6_21 
REMARK    5  A    between atoms: O2_9  and  C2_28 
REMARK    6  A    between atoms: O2_9  and  S_13 
REMARK    7  A    between atoms: C3_10  and  O3_20 
REMARK    8  A    between atoms: C1_11  and  O4_12 
REMARK    9  A    between atoms: O4_12  and  C4_19 
REMARK   10  A    between atoms: C2_15  and  N_29 
REMARK   11  A    between atoms: C5_17  and  C6_21 
REMARK   12  A    between atoms: C6_23  and  O61_33 
REMARK   13  A    between atoms: O3_24  and  C3_26 
REMARK   14  A    between atoms: S1_27  and  N_29 
ROOT
ATOM      1  O5  SGN d5702      63.711  38.922  37.014  0.00  0.00    -0.350 OA
ATOM      2  C2  SGN d5702      65.984  39.657  37.247  0.00  0.00     0.160 C 
ATOM      3  C5  SGN d5702      63.305  39.546  38.208  0.00  0.00     0.181 C 
ATOM      4  C4  SGN d5702      64.210  40.767  38.471  0.00  0.00     0.186 C 
ATOM      5  C3  SGN d5702      65.669  40.252  38.594  0.00  0.00     0.173 C 
ATOM      6  C1  SGN d5702      65.070  38.479  36.963  0.00  0.00     0.278 C 
ENDROOT
BRANCH   4   7
ATOM      7  O4  SGN d5702      63.729  41.371  39.703  0.00  0.00    -0.348 OA
BRANCH   7   8
ATOM      8  C1  IDU d1623      63.501  42.746  39.928  0.00  0.00     0.294 C 
ATOM      9  O5  IDU d1623      62.425  43.302  39.106  0.00  0.00    -0.343 OA
ATOM     10  C5  IDU d1623      62.265  44.759  39.239  0.00  0.00     0.224 C 
ATOM     11  C4  IDU d1623      61.919  45.089  40.700  0.00  0.00     0.077 C 
ATOM     12  C3  IDU d1623      63.019  44.547  41.626  0.00  0.00     0.156 C 
ATOM     13  C2  IDU d1623      63.126  43.032  41.391  0.00  0.00     0.228 C 
BRANCH  10  14
ATOM     14  C6  IDU d1623      61.154  45.273  38.364  0.00  0.00     0.170 C 
ATOM     15  O62 IDU d1623      61.246  45.100  37.139  0.00  0.00    -0.648 OA
BRANCH  14  16
ATOM     16  O61 IDU d1623      60.196  45.848  38.920  0.00  0.00    -0.774 OA
ENDBRANCH  14  16
ENDBRANCH  10  14
BRANCH  12  18
ATOM     18  O3  IDU d1623      64.236  45.168  41.319  0.00  0.00    -0.393 OA
ATOM     19  H   IDU d1623      64.079  45.900  40.703  0.00  0.00     0.210 HD
ENDBRANCH  12  18
BRANCH  13  20
ATOM     20  O2  IDU d1623      61.881  42.423  41.638  0.00  0.00    -0.244 OA
BRANCH  20  21
ATOM     21  S   IDU d1623      61.819  41.122  42.780  0.00  0.00     0.252 S 
ATOM     22  O3S IDU d1623      62.891  41.214  43.700  0.00  0.00    -0.572 OA
ATOM     23  O1S IDU d1623      61.816  39.907  42.021  0.00  0.00    -0.572 OA
ATOM     24  O2S IDU d1623      60.602  41.188  43.574  0.00  0.00    -0.572 OA
ENDBRANCH  20  21
ENDBRANCH  13  20
ENDBRANCH   7   8
ENDBRANCH   4   7
BRANCH   3  25
ATOM     25  C6  SGN d5702      61.869  39.933  38.039  0.00  0.00     0.227 C 
BRANCH  25  26
ATOM     26  O6  SGN d5702      61.930  41.048  37.163  0.00  0.00    -0.254 OA
BRANCH  26  27
ATOM     27  S2  SGN d5702      61.123  40.947  35.635  0.00  0.00     0.251 S 
ATOM     28  O4S SGN d5702      60.205  42.026  35.460  0.00  0.00    -0.572 OA
ATOM     29  O5S SGN d5702      60.406  39.705  35.581  0.00  0.00    -0.572 OA
ATOM     30  O6S SGN d5702      62.162  41.043  34.652  0.00  0.00    -0.572 OA
ENDBRANCH  26  27
ENDBRANCH  25  26
ENDBRANCH   3  25
BRANCH   5  31
ATOM     31  O3  SGN d5702      66.540  41.334  38.822  0.00  0.00    -0.391 OA
ATOM     32  H   SGN d5702      66.619  41.861  38.012  0.00  0.00     0.210 HD
ENDBRANCH   5  31
BRANCH   2  33
ATOM     33  N   SGN d5702      67.325  39.175  37.220  0.00  0.00    -0.189 NA
ATOM     34  H   SGN d5702      67.313  38.177  37.005  0.00  0.00     0.143 HD
BRANCH  33  35
ATOM     35  S1  SGN d5702      68.303  40.008  36.008  0.00  0.00     0.183 S 
ATOM     36  O1S SGN d5702      67.562  40.040  34.763  0.00  0.00    -0.582 OA
ATOM     37  O2S SGN d5702      69.492  39.254  35.780  0.00  0.00    -0.582 OA
ATOM     38  O3S SGN d5702      68.565  41.320  36.568  0.00  0.00    -0.582 OA
ENDBRANCH  33  35
ENDBRANCH   2  33
BRANCH   6  39
ATOM     39  O1  SGN d5702      65.274  37.408  37.854  0.00  0.00    -0.369 OA
ATOM     40  H   SGN d5702      64.462  36.882  37.917  0.00  0.00     0.212 HD
ENDBRANCH   6  39
TORSDOF 14
ENDMDL
MODEL 54
REMARK VINA RESULT:      -3.6      2.705      4.641
REMARK  14 active torsions:
REMARK  status: ('A' for Active; 'I' for Inactive)
REMARK    1  A    between atoms: C5_1  and  C6_23 
REMARK    2  A    between atoms: S2_5  and  O6_7 
REMARK    3  A    between atoms: O1_6  and  C1_35 
REMARK    4  A    between atoms: O6_7  and  C6_21 
REMARK    5  A    between atoms: O2_9  and  C2_28 
REMARK    6  A    between atoms: O2_9  and  S_13 
REMARK    7  A    between atoms: C3_10  and  O3_20 
REMARK    8  A    between atoms: C1_11  and  O4_12 
REMARK    9  A    between atoms: O4_12  and  C4_19 
REMARK   10  A    between atoms: C2_15  and  N_29 
REMARK   11  A    between atoms: C5_17  and  C6_21 
REMARK   12  A    between atoms: C6_23  and  O61_33 
REMARK   13  A    between atoms: O3_24  and  C3_26 
REMARK   14  A    between atoms: S1_27  and  N_29 
ROOT
ATOM      1  O5  SGN d5702      62.169  43.754  34.767  0.00  0.00    -0.350 OA
ATOM      2  C2  SGN d5702      62.731  42.018  36.327  0.00  0.00     0.160 C 
ATOM      3  C5  SGN d5702      63.506  44.171  34.632  0.00  0.00     0.181 C 
ATOM      4  C4  SGN d5702      64.438  42.971  34.893  0.00  0.00     0.186 C 
ATOM      5  C3  SGN d5702      64.167  42.472  36.338  0.00  0.00     0.173 C 
ATOM      6  C1  SGN d5702      61.810  43.187  36.030  0.00  0.00     0.278 C 
ENDROOT
BRANCH   4   7
ATOM      7  O4  SGN d5702      65.794  43.465  34.723  0.00  0.00    -0.348 OA
BRANCH   7   8
ATOM      8  C1  IDU d1623      66.878  42.759  34.154  0.00  0.00     0.294 C 
ATOM      9  O5  IDU d1623      66.656  42.374  32.759  0.00  0.00    -0.343 OA
ATOM     10  C5  IDU d1623      67.723  41.529  32.198  0.00  0.00     0.224 C 
ATOM     11  C4  IDU d1623      69.046  42.310  32.235  0.00  0.00     0.077 C 
ATOM     12  C3  IDU d1623      69.354  42.735  33.680  0.00  0.00     0.156 C 
ATOM     13  C2  IDU d1623      68.175  43.584  34.180  0.00  0.00     0.228 C 
BRANCH  10  14
ATOM     14  C6  IDU d1623      67.435  41.158  30.769  0.00  0.00     0.170 C 
ATOM     15  O62 IDU d1623      67.285  39.957  30.494  0.00  0.00    -0.648 OA
BRANCH  14  16
ATOM     16  O61 IDU d1623      67.364  42.081  29.932  0.00  0.00    -0.774 OA
ENDBRANCH  14  16
ENDBRANCH  10  14
BRANCH  12  18
ATOM     18  O3  IDU d1623      69.501  41.596  34.481  0.00  0.00    -0.393 OA
ATOM     19  H   IDU d1623      70.054  41.811  35.249  0.00  0.00     0.210 HD
ENDBRANCH  12  18
BRANCH  13  20
ATOM     20  O2  IDU d1623      67.991  44.692  33.331  0.00  0.00    -0.244 OA
BRANCH  20  21
ATOM     21  S   IDU d1623      68.211  46.276  33.996  0.00  0.00     0.252 S 
ATOM     22  O3S IDU d1623      68.975  46.217  35.185  0.00  0.00    -0.572 OA
ATOM     23  O1S IDU d1623      66.904  46.831  34.181  0.00  0.00    -0.572 OA
ATOM     24  O2S IDU d1623      68.960  47.122  33.079  0.00  0.00    -0.572 OA
ENDBRANCH  20  21
ENDBRANCH  13  20
ENDBRANCH   7   8
ENDBRANCH   4   7
BRANCH   3  25
ATOM     25  C6  SGN d5702      63.660  44.715  33.246  0.00  0.00     0.227 C 
BRANCH  25  26
ATOM     26  O6  SGN d5702      63.251  43.635  32.421  0.00  0.00    -0.254 OA
BRANCH  26  27
ATOM     27  S2  SGN d5702      63.810  43.584  30.784  0.00  0.00     0.251 S 
ATOM     28  O4S SGN d5702      64.073  42.245  30.366  0.00  0.00    -0.572 OA
ATOM     29  O5S SGN d5702      65.019  44.352  30.692  0.00  0.00    -0.572 OA
ATOM     30  O6S SGN d5702      62.737  44.124  30.002  0.00  0.00    -0.572 OA
ENDBRANCH  26  27
ENDBRANCH  25  26
ENDBRANCH   3  25
BRANCH   5  31
ATOM     31  O3  SGN d5702      64.986  41.364  36.623  0.00  0.00    -0.391 OA
ATOM     32  H   SGN d5702      65.885  41.536  36.301  0.00  0.00     0.210 HD
ENDBRANCH   5  31
BRANCH   2  33
ATOM     33  N   SGN d5702      62.367  41.499  37.604  0.00  0.00    -0.189 NA
ATOM     34  H   SGN d5702      61.532  41.985  37.932  0.00  0.00     0.143 HD
BRANCH  33  35
ATOM     35  S1  SGN d5702      62.030  39.766  37.542  0.00  0.00     0.183 S 
ATOM     36  O1S SGN d5702      61.750  39.304  38.887  0.00  0.00    -0.582 OA
ATOM     37  O2S SGN d5702      63.200  39.087  37.090  0.00  0.00    -0.582 OA
ATOM     38  O3S SGN d5702      60.910  39.629  36.631  0.00  0.00    -0.582 OA
ENDBRANCH  33  35
ENDBRANCH   2  33
BRANCH   6  39
ATOM     39  O1  SGN d5702      61.838  44.169  37.038  0.00  0.00    -0.369 OA
ATOM     40  H   SGN d5702      62.757  44.337  37.299  0.00  0.00     0.212 HD
ENDBRANCH   6  39
TORSDOF 14
ENDMDL
MODEL 55
REMARK VINA RESULT:      -3.6      3.048      5.181
REMARK  14 active torsions:
REMARK  status: ('A' for Active; 'I' for Inactive)
REMARK    1  A    between atoms: C5_1  and  C6_23 
REMARK    2  A    between atoms: S2_5  and  O6_7 
REMARK    3  A    between atoms: O1_6  and  C1_35 
REMARK    4  A    between atoms: O6_7  and  C6_21 
REMARK    5  A    between atoms: O2_9  and  C2_28 
REMARK    6  A    between atoms: O2_9  and  S_13 
REMARK    7  A    between atoms: C3_10  and  O3_20 
REMARK    8  A    between atoms: C1_11  and  O4_12 
REMARK    9  A    between atoms: O4_12  and  C4_19 
REMARK   10  A    between atoms: C2_15  and  N_29 
REMARK   11  A    between atoms: C5_17  and  C6_21 
REMARK   12  A    between atoms: C6_23  and  O61_33 
REMARK   13  A    between atoms: O3_24  and  C3_26 
REMARK   14  A    between atoms: S1_27  and  N_29 
ROOT
ATOM      1  O5  SGN d5702      63.603  38.738  37.334  0.00  0.00    -0.350 OA
ATOM      2  C2  SGN d5702      62.781  39.727  39.361  0.00  0.00     0.160 C 
ATOM      3  C5  SGN d5702      63.658  39.973  36.662  0.00  0.00     0.181 C 
ATOM      4  C4  SGN d5702      63.884  41.097  37.693  0.00  0.00     0.186 C 
ATOM      5  C3  SGN d5702      62.692  41.070  38.687  0.00  0.00     0.173 C 
ATOM      6  C1  SGN d5702      62.600  38.613  38.346  0.00  0.00     0.278 C 
ENDROOT
BRANCH   4   7
ATOM      7  O4  SGN d5702      63.946  42.337  36.935  0.00  0.00    -0.348 OA
BRANCH   7   8
ATOM      8  C1  IDU d1623      64.935  43.339  37.048  0.00  0.00     0.294 C 
ATOM      9  O5  IDU d1623      66.286  42.863  36.741  0.00  0.00    -0.343 OA
ATOM     10  C5  IDU d1623      67.337  43.865  36.980  0.00  0.00     0.224 C 
ATOM     11  C4  IDU d1623      67.081  45.079  36.072  0.00  0.00     0.077 C 
ATOM     12  C3  IDU d1623      65.680  45.645  36.351  0.00  0.00     0.156 C 
ATOM     13  C2  IDU d1623      64.662  44.520  36.103  0.00  0.00     0.228 C 
BRANCH  10  14
ATOM     14  C6  IDU d1623      68.701  43.316  36.658  0.00  0.00     0.170 C 
ATOM     15  O62 IDU d1623      68.819  42.090  36.510  0.00  0.00    -0.648 OA
BRANCH  14  16
ATOM     16  O61 IDU d1623      69.644  44.127  36.558  0.00  0.00    -0.774 OA
ENDBRANCH  14  16
ENDBRANCH  10  14
BRANCH  12  18
ATOM     18  O3  IDU d1623      65.605  46.075  37.682  0.00  0.00    -0.393 OA
ATOM     19  H   IDU d1623      65.343  45.332  38.247  0.00  0.00     0.210 HD
ENDBRANCH  12  18
BRANCH  13  20
ATOM     20  O2  IDU d1623      64.788  44.047  34.783  0.00  0.00    -0.244 OA
BRANCH  20  21
ATOM     21  S   IDU d1623      63.491  44.358  33.677  0.00  0.00     0.252 S 
ATOM     22  O3S IDU d1623      63.549  45.689  33.200  0.00  0.00    -0.572 OA
ATOM     23  O1S IDU d1623      62.276  44.047  34.368  0.00  0.00    -0.572 OA
ATOM     24  O2S IDU d1623      63.599  43.507  32.501  0.00  0.00    -0.572 OA
ENDBRANCH  20  21
ENDBRANCH  13  20
ENDBRANCH   7   8
ENDBRANCH   4   7
BRANCH   3  25
ATOM     25  C6  SGN d5702      64.772  39.886  35.667  0.00  0.00     0.227 C 
BRANCH  25  26
ATOM     26  O6  SGN d5702      64.216  40.471  34.499  0.00  0.00    -0.254 OA
BRANCH  26  27
ATOM     27  S2  SGN d5702      64.963  40.144  32.972  0.00  0.00     0.251 S 
ATOM     28  O4S SGN d5702      64.012  40.190  31.908  0.00  0.00    -0.572 OA
ATOM     29  O5S SGN d5702      65.550  38.836  33.024  0.00  0.00    -0.572 OA
ATOM     30  O6S SGN d5702      65.927  41.190  32.793  0.00  0.00    -0.572 OA
ENDBRANCH  26  27
ENDBRANCH  25  26
ENDBRANCH   3  25
BRANCH   5  31
ATOM     31  O3  SGN d5702      62.858  42.073  39.660  0.00  0.00    -0.391 OA
ATOM     32  H   SGN d5702      62.041  42.591  39.733  0.00  0.00     0.210 HD
ENDBRANCH   5  31
BRANCH   2  33
ATOM     33  N   SGN d5702      61.748  39.592  40.334  0.00  0.00    -0.189 NA
ATOM     34  H   SGN d5702      61.187  38.770  40.107  0.00  0.00     0.143 HD
BRANCH  33  35
ATOM     35  S1  SGN d5702      62.398  39.405  41.966  0.00  0.00     0.183 S 
ATOM     36  O1S SGN d5702      63.331  40.485  42.215  0.00  0.00    -0.582 OA
ATOM     37  O2S SGN d5702      63.129  38.182  42.032  0.00  0.00    -0.582 OA
ATOM     38  O3S SGN d5702      61.240  39.418  42.840  0.00  0.00    -0.582 OA
ENDBRANCH  33  35
ENDBRANCH   2  33
BRANCH   6  39
ATOM     39  O1  SGN d5702      61.315  38.609  37.770  0.00  0.00    -0.369 OA
ATOM     40  H   SGN d5702      60.787  37.897  38.163  0.00  0.00     0.212 HD
ENDBRANCH   6  39
TORSDOF 14
ENDMDL
MODEL 56
REMARK VINA RESULT:      -3.6      2.625      3.514
REMARK  14 active torsions:
REMARK  status: ('A' for Active; 'I' for Inactive)
REMARK    1  A    between atoms: C5_1  and  C6_23 
REMARK    2  A    between atoms: S2_5  and  O6_7 
REMARK    3  A    between atoms: O1_6  and  C1_35 
REMARK    4  A    between atoms: O6_7  and  C6_21 
REMARK    5  A    between atoms: O2_9  and  C2_28 
REMARK    6  A    between atoms: O2_9  and  S_13 
REMARK    7  A    between atoms: C3_10  and  O3_20 
REMARK    8  A    between atoms: C1_11  and  O4_12 
REMARK    9  A    between atoms: O4_12  and  C4_19 
REMARK   10  A    between atoms: C2_15  and  N_29 
REMARK   11  A    between atoms: C5_17  and  C6_21 
REMARK   12  A    between atoms: C6_23  and  O61_33 
REMARK   13  A    between atoms: O3_24  and  C3_26 
REMARK   14  A    between atoms: S1_27  and  N_29 
ROOT
ATOM      1  O5  SGN d5702      62.316  38.622  39.419  0.00  0.00    -0.350 OA
ATOM      2  C2  SGN d5702      64.182  39.085  40.857  0.00  0.00     0.160 C 
ATOM      3  C5  SGN d5702      62.575  39.734  38.597  0.00  0.00     0.181 C 
ATOM      4  C4  SGN d5702      64.084  40.049  38.635  0.00  0.00     0.186 C 
ATOM      5  C3  SGN d5702      64.462  40.361  40.108  0.00  0.00     0.173 C 
ATOM      6  C1  SGN d5702      62.704  38.747  40.790  0.00  0.00     0.278 C 
ENDROOT
BRANCH   4   7
ATOM      7  O4  SGN d5702      64.283  41.191  37.757  0.00  0.00    -0.348 OA
BRANCH   7   8
ATOM      8  C1  IDU d1623      65.223  41.286  36.707  0.00  0.00     0.294 C 
ATOM      9  O5  IDU d1623      64.870  40.483  35.534  0.00  0.00    -0.343 OA
ATOM     10  C5  IDU d1623      65.904  40.475  34.486  0.00  0.00     0.224 C 
ATOM     11  C4  IDU d1623      66.117  41.913  33.988  0.00  0.00     0.077 C 
ATOM     12  C3  IDU d1623      66.508  42.816  35.169  0.00  0.00     0.156 C 
ATOM     13  C2  IDU d1623      65.385  42.733  36.214  0.00  0.00     0.228 C 
BRANCH  10  14
ATOM     14  C6  IDU d1623      65.491  39.627  33.314  0.00  0.00     0.170 C 
ATOM     15  O62 IDU d1623      64.514  39.993  32.642  0.00  0.00    -0.648 OA
BRANCH  14  16
ATOM     16  O61 IDU d1623      66.154  38.596  33.080  0.00  0.00    -0.774 OA
ENDBRANCH  14  16
ENDBRANCH  10  14
BRANCH  12  18
ATOM     18  O3  IDU d1623      67.714  42.366  35.722  0.00  0.00    -0.393 OA
ATOM     19  H   IDU d1623      68.327  43.112  35.810  0.00  0.00     0.210 HD
ENDBRANCH  12  18
BRANCH  13  20
ATOM     20  O2  IDU d1623      64.163  43.124  35.632  0.00  0.00    -0.244 OA
BRANCH  20  21
ATOM     21  S   IDU d1623      63.519  44.677  36.049  0.00  0.00     0.252 S 
ATOM     22  O3S IDU d1623      63.625  45.571  34.957  0.00  0.00    -0.572 OA
ATOM     23  O1S IDU d1623      64.221  45.114  37.218  0.00  0.00    -0.572 OA
ATOM     24  O2S IDU d1623      62.100  44.583  36.354  0.00  0.00    -0.572 OA
ENDBRANCH  20  21
ENDBRANCH  13  20
ENDBRANCH   7   8
ENDBRANCH   4   7
BRANCH   3  25
ATOM     25  C6  SGN d5702      62.105  39.384  37.219  0.00  0.00     0.227 C 
BRANCH  25  26
ATOM     26  O6  SGN d5702      60.985  40.236  37.028  0.00  0.00    -0.254 OA
BRANCH  26  27
ATOM     27  S2  SGN d5702      60.632  40.795  35.429  0.00  0.00     0.251 S 
ATOM     28  O4S SGN d5702      59.875  42.004  35.456  0.00  0.00    -0.572 OA
ATOM     29  O5S SGN d5702      59.876  39.781  34.750  0.00  0.00    -0.572 OA
ATOM     30  O6S SGN d5702      61.909  41.047  34.827  0.00  0.00    -0.572 OA
ENDBRANCH  26  27
ENDBRANCH  25  26
ENDBRANCH   3  25
BRANCH   5  31
ATOM     31  O3  SGN d5702      65.837  40.643  40.199  0.00  0.00    -0.391 OA
ATOM     32  H   SGN d5702      66.120  40.580  41.125  0.00  0.00     0.210 HD
ENDBRANCH   5  31
BRANCH   2  33
ATOM     33  N   SGN d5702      64.525  39.234  42.233  0.00  0.00    -0.189 NA
ATOM     34  H   SGN d5702      63.700  39.043  42.801  0.00  0.00     0.143 HD
BRANCH  33  35
ATOM     35  S1  SGN d5702      65.817  38.129  42.715  0.00  0.00     0.183 S 
ATOM     36  O1S SGN d5702      65.586  36.847  42.079  0.00  0.00    -0.582 OA
ATOM     37  O2S SGN d5702      65.746  37.927  44.125  0.00  0.00    -0.582 OA
ATOM     38  O3S SGN d5702      67.046  38.776  42.297  0.00  0.00    -0.582 OA
ENDBRANCH  33  35
ENDBRANCH   2  33
BRANCH   6  39
ATOM     39  O1  SGN d5702      61.900  39.699  41.445  0.00  0.00    -0.369 OA
ATOM     40  H   SGN d5702      62.462  40.399  41.811  0.00  0.00     0.212 HD
ENDBRANCH   6  39
TORSDOF 14
ENDMDL
MODEL 57
REMARK VINA RESULT:      -3.6      3.762      6.152
REMARK  14 active torsions:
REMARK  status: ('A' for Active; 'I' for Inactive)
REMARK    1  A    between atoms: C5_1  and  C6_23 
REMARK    2  A    between atoms: S2_5  and  O6_7 
REMARK    3  A    between atoms: O1_6  and  C1_35 
REMARK    4  A    between atoms: O6_7  and  C6_21 
REMARK    5  A    between atoms: O2_9  and  C2_28 
REMARK    6  A    between atoms: O2_9  and  S_13 
REMARK    7  A    between atoms: C3_10  and  O3_20 
REMARK    8  A    between atoms: C1_11  and  O4_12 
REMARK    9  A    between atoms: O4_12  and  C4_19 
REMARK   10  A    between atoms: C2_15  and  N_29 
REMARK   11  A    between atoms: C5_17  and  C6_21 
REMARK   12  A    between atoms: C6_23  and  O61_33 
REMARK   13  A    between atoms: O3_24  and  C3_26 
REMARK   14  A    between atoms: S1_27  and  N_29 
ROOT
ATOM      1  O5  SGN d5702      62.151  37.585  38.139  0.00  0.00    -0.350 OA
ATOM      2  C2  SGN d5702      64.382  37.347  38.993  0.00  0.00     0.160 C 
ATOM      3  C5  SGN d5702      61.950  38.816  38.790  0.00  0.00     0.181 C 
ATOM      4  C4  SGN d5702      63.310  39.521  38.964  0.00  0.00     0.186 C 
ATOM      5  C3  SGN d5702      64.214  38.593  39.820  0.00  0.00     0.173 C 
ATOM      6  C1  SGN d5702      63.041  36.668  38.782  0.00  0.00     0.278 C 
ENDROOT
BRANCH   4   7
ATOM      7  O4  SGN d5702      63.031  40.786  39.625  0.00  0.00    -0.348 OA
BRANCH   7   8
ATOM      8  C1  IDU d1623      63.516  42.056  39.242  0.00  0.00     0.294 C 
ATOM      9  O5  IDU d1623      62.761  42.663  38.144  0.00  0.00    -0.343 OA
ATOM     10  C5  IDU d1623      63.336  43.926  37.653  0.00  0.00     0.224 C 
ATOM     11  C4  IDU d1623      63.341  44.947  38.802  0.00  0.00     0.077 C 
ATOM     12  C3  IDU d1623      64.134  44.383  39.991  0.00  0.00     0.156 C 
ATOM     13  C2  IDU d1623      63.475  43.058  40.407  0.00  0.00     0.228 C 
BRANCH  10  14
ATOM     14  C6  IDU d1623      62.525  44.495  36.521  0.00  0.00     0.170 C 
ATOM     15  O62 IDU d1623      61.369  44.875  36.762  0.00  0.00    -0.648 OA
BRANCH  14  16
ATOM     16  O61 IDU d1623      63.060  44.553  35.395  0.00  0.00    -0.774 OA
ENDBRANCH  14  16
ENDBRANCH  10  14
BRANCH  12  18
ATOM     18  O3  IDU d1623      65.461  44.159  39.604  0.00  0.00    -0.393 OA
ATOM     19  H   IDU d1623      66.056  44.414  40.327  0.00  0.00     0.210 HD
ENDBRANCH  12  18
BRANCH  13  20
ATOM     20  O2  IDU d1623      62.123  43.279  40.731  0.00  0.00    -0.244 OA
BRANCH  20  21
ATOM     21  S   IDU d1623      61.646  43.135  42.390  0.00  0.00     0.252 S 
ATOM     22  O3S IDU d1623      62.639  43.671  43.244  0.00  0.00    -0.572 OA
ATOM     23  O1S IDU d1623      61.377  41.748  42.623  0.00  0.00    -0.572 OA
ATOM     24  O2S IDU d1623      60.438  43.903  42.649  0.00  0.00    -0.572 OA
ENDBRANCH  20  21
ENDBRANCH  13  20
ENDBRANCH   7   8
ENDBRANCH   4   7
BRANCH   3  25
ATOM     25  C6  SGN d5702      61.005  39.613  37.947  0.00  0.00     0.227 C 
BRANCH  25  26
ATOM     26  O6  SGN d5702      61.667  39.689  36.693  0.00  0.00    -0.254 OA
BRANCH  26  27
ATOM     27  S2  SGN d5702      61.060  40.787  35.501  0.00  0.00     0.251 S 
ATOM     28  O4S SGN d5702      62.121  41.378  34.750  0.00  0.00    -0.572 OA
ATOM     29  O5S SGN d5702      60.323  41.822  36.169  0.00  0.00    -0.572 OA
ATOM     30  O6S SGN d5702      60.249  39.988  34.630  0.00  0.00    -0.572 OA
ENDBRANCH  26  27
ENDBRANCH  25  26
ENDBRANCH   3  25
BRANCH   5  31
ATOM     31  O3  SGN d5702      65.477  39.188  39.998  0.00  0.00    -0.391 OA
ATOM     32  H   SGN d5702      65.612  39.869  39.322  0.00  0.00     0.210 HD
ENDBRANCH   5  31
BRANCH   2  33
ATOM     33  N   SGN d5702      65.231  36.418  39.663  0.00  0.00    -0.189 NA
ATOM     34  H   SGN d5702      64.716  35.551  39.816  0.00  0.00     0.143 HD
BRANCH  33  35
ATOM     35  S1  SGN d5702      66.687  36.060  38.729  0.00  0.00     0.183 S 
ATOM     36  O1S SGN d5702      66.372  35.020  37.770  0.00  0.00    -0.582 OA
ATOM     37  O2S SGN d5702      67.683  35.545  39.611  0.00  0.00    -0.582 OA
ATOM     38  O3S SGN d5702      67.068  37.321  38.121  0.00  0.00    -0.582 OA
ENDBRANCH  33  35
ENDBRANCH   2  33
BRANCH   6  39
ATOM     39  O1  SGN d5702      62.478  36.195  39.983  0.00  0.00    -0.369 OA
ATOM     40  H   SGN d5702      62.415  35.227  39.950  0.00  0.00     0.212 HD
ENDBRANCH   6  39
TORSDOF 14
ENDMDL
MODEL 58
REMARK VINA RESULT:      -3.6      2.968      7.953
REMARK  14 active torsions:
REMARK  status: ('A' for Active; 'I' for Inactive)
REMARK    1  A    between atoms: C5_1  and  C6_23 
REMARK    2  A    between atoms: S2_5  and  O6_7 
REMARK    3  A    between atoms: O1_6  and  C1_35 
REMARK    4  A    between atoms: O6_7  and  C6_21 
REMARK    5  A    between atoms: O2_9  and  C2_28 
REMARK    6  A    between atoms: O2_9  and  S_13 
REMARK    7  A    between atoms: C3_10  and  O3_20 
REMARK    8  A    between atoms: C1_11  and  O4_12 
REMARK    9  A    between atoms: O4_12  and  C4_19 
REMARK   10  A    between atoms: C2_15  and  N_29 
REMARK   11  A    between atoms: C5_17  and  C6_21 
REMARK   12  A    between atoms: C6_23  and  O61_33 
REMARK   13  A    between atoms: O3_24  and  C3_26 
REMARK   14  A    between atoms: S1_27  and  N_29 
ROOT
ATOM      1  O5  SGN d5702      61.396  39.913  37.899  0.00  0.00    -0.350 OA
ATOM      2  C2  SGN d5702      62.490  41.269  36.247  0.00  0.00     0.160 C 
ATOM      3  C5  SGN d5702      62.308  38.853  37.744  0.00  0.00     0.181 C 
ATOM      4  C4  SGN d5702      63.666  39.420  37.283  0.00  0.00     0.186 C 
ATOM      5  C3  SGN d5702      63.437  40.143  35.929  0.00  0.00     0.173 C 
ATOM      6  C1  SGN d5702      61.164  40.720  36.741  0.00  0.00     0.278 C 
ENDROOT
BRANCH   4   7
ATOM      7  O4  SGN d5702      64.561  38.280  37.159  0.00  0.00    -0.348 OA
BRANCH   7   8
ATOM      8  C1  IDU d1623      65.875  38.188  37.668  0.00  0.00     0.294 C 
ATOM      9  O5  IDU d1623      65.928  38.050  39.125  0.00  0.00    -0.343 OA
ATOM     10  C5  IDU d1623      67.293  38.082  39.676  0.00  0.00     0.224 C 
ATOM     11  C4  IDU d1623      68.091  36.906  39.092  0.00  0.00     0.077 C 
ATOM     12  C3  IDU d1623      68.093  36.994  37.558  0.00  0.00     0.156 C 
ATOM     13  C2  IDU d1623      66.630  36.982  37.086  0.00  0.00     0.228 C 
BRANCH  10  14
ATOM     14  C6  IDU d1623      67.283  37.947  41.175  0.00  0.00     0.170 C 
ATOM     15  O62 IDU d1623      66.305  37.400  41.707  0.00  0.00    -0.648 OA
BRANCH  14  16
ATOM     16  O61 IDU d1623      68.263  38.396  41.804  0.00  0.00    -0.774 OA
ENDBRANCH  14  16
ENDBRANCH  10  14
BRANCH  12  18
ATOM     18  O3  IDU d1623      68.718  38.182  37.158  0.00  0.00    -0.393 OA
ATOM     19  H   IDU d1623      68.439  38.905  37.741  0.00  0.00     0.210 HD
ENDBRANCH  12  18
BRANCH  13  20
ATOM     20  O2  IDU d1623      65.990  35.816  37.548  0.00  0.00    -0.244 OA
BRANCH  20  21
ATOM     21  S   IDU d1623      65.245  34.776  36.380  0.00  0.00     0.252 S 
ATOM     22  O3S IDU d1623      65.829  33.487  36.414  0.00  0.00    -0.572 OA
ATOM     23  O1S IDU d1623      65.367  35.428  35.110  0.00  0.00    -0.572 OA
ATOM     24  O2S IDU d1623      63.835  34.586  36.682  0.00  0.00    -0.572 OA
ENDBRANCH  20  21
ENDBRANCH  13  20
ENDBRANCH   7   8
ENDBRANCH   4   7
BRANCH   3  25
ATOM     25  C6  SGN d5702      62.405  38.157  39.066  0.00  0.00     0.227 C 
BRANCH  25  26
ATOM     26  O6  SGN d5702      62.153  36.798  38.741  0.00  0.00    -0.254 OA
BRANCH  26  27
ATOM     27  S2  SGN d5702      62.508  35.584  39.923  0.00  0.00     0.251 S 
ATOM     28  O4S SGN d5702      63.915  35.410  40.083  0.00  0.00    -0.572 OA
ATOM     29  O5S SGN d5702      61.926  34.346  39.490  0.00  0.00    -0.572 OA
ATOM     30  O6S SGN d5702      61.948  36.075  41.148  0.00  0.00    -0.572 OA
ENDBRANCH  26  27
ENDBRANCH  25  26
ENDBRANCH   3  25
BRANCH   5  31
ATOM     31  O3  SGN d5702      64.649  40.692  35.469  0.00  0.00    -0.391 OA
ATOM     32  H   SGN d5702      65.224  40.883  36.226  0.00  0.00     0.210 HD
ENDBRANCH   5  31
BRANCH   2  33
ATOM     33  N   SGN d5702      62.225  42.040  35.077  0.00  0.00    -0.189 NA
ATOM     34  H   SGN d5702      61.217  42.071  34.924  0.00  0.00     0.143 HD
BRANCH  33  35
ATOM     35  S1  SGN d5702      62.832  43.692  35.223  0.00  0.00     0.183 S 
ATOM     36  O1S SGN d5702      64.178  43.641  35.759  0.00  0.00    -0.582 OA
ATOM     37  O2S SGN d5702      62.022  44.398  36.161  0.00  0.00    -0.582 OA
ATOM     38  O3S SGN d5702      62.757  44.244  33.883  0.00  0.00    -0.582 OA
ENDBRANCH  33  35
ENDBRANCH   2  33
BRANCH   6  39
ATOM     39  O1  SGN d5702      60.482  39.983  35.754  0.00  0.00    -0.369 OA
ATOM     40  H   SGN d5702      59.764  40.523  35.387  0.00  0.00     0.212 HD
ENDBRANCH   6  39
TORSDOF 14
ENDMDL
MODEL 59
REMARK VINA RESULT:      -3.6      4.158      7.202
REMARK  14 active torsions:
REMARK  status: ('A' for Active; 'I' for Inactive)
REMARK    1  A    between atoms: C5_1  and  C6_23 
REMARK    2  A    between atoms: S2_5  and  O6_7 
REMARK    3  A    between atoms: O1_6  and  C1_35 
REMARK    4  A    between atoms: O6_7  and  C6_21 
REMARK    5  A    between atoms: O2_9  and  C2_28 
REMARK    6  A    between atoms: O2_9  and  S_13 
REMARK    7  A    between atoms: C3_10  and  O3_20 
REMARK    8  A    between atoms: C1_11  and  O4_12 
REMARK    9  A    between atoms: O4_12  and  C4_19 
REMARK   10  A    between atoms: C2_15  and  N_29 
REMARK   11  A    between atoms: C5_17  and  C6_21 
REMARK   12  A    between atoms: C6_23  and  O61_33 
REMARK   13  A    between atoms: O3_24  and  C3_26 
REMARK   14  A    between atoms: S1_27  and  N_29 
ROOT
ATOM      1  O5  SGN d5702      62.642  40.758  37.158  0.00  0.00    -0.350 OA
ATOM      2  C2  SGN d5702      62.522  38.924  38.703  0.00  0.00     0.160 C 
ATOM      3  C5  SGN d5702      62.499  41.722  38.172  0.00  0.00     0.181 C 
ATOM      4  C4  SGN d5702      63.058  41.153  39.492  0.00  0.00     0.186 C 
ATOM      5  C3  SGN d5702      62.243  39.878  39.835  0.00  0.00     0.173 C 
ATOM      6  C1  SGN d5702      62.010  39.496  37.394  0.00  0.00     0.278 C 
ENDROOT
BRANCH   4   7
ATOM      7  O4  SGN d5702      62.894  42.201  40.487  0.00  0.00    -0.348 OA
BRANCH   7   8
ATOM      8  C1  IDU d1623      63.879  42.657  41.392  0.00  0.00     0.294 C 
ATOM      9  O5  IDU d1623      65.038  43.265  40.735  0.00  0.00    -0.343 OA
ATOM     10  C5  IDU d1623      66.124  43.627  41.660  0.00  0.00     0.224 C 
ATOM     11  C4  IDU d1623      65.594  44.662  42.666  0.00  0.00     0.077 C 
ATOM     12  C3  IDU d1623      64.379  44.084  43.409  0.00  0.00     0.156 C 
ATOM     13  C2  IDU d1623      63.320  43.714  42.359  0.00  0.00     0.228 C 
BRANCH  10  14
ATOM     14  C6  IDU d1623      67.289  44.236  40.928  0.00  0.00     0.170 C 
ATOM     15  O62 IDU d1623      67.248  45.448  40.668  0.00  0.00    -0.648 OA
BRANCH  14  16
ATOM     16  O61 IDU d1623      68.237  43.485  40.620  0.00  0.00    -0.774 OA
ENDBRANCH  14  16
ENDBRANCH  10  14
BRANCH  12  18
ATOM     18  O3  IDU d1623      64.767  42.945  44.125  0.00  0.00    -0.393 OA
ATOM     19  H   IDU d1623      65.500  42.508  43.664  0.00  0.00     0.210 HD
ENDBRANCH  12  18
BRANCH  13  20
ATOM     20  O2  IDU d1623      62.984  44.850  41.599  0.00  0.00    -0.244 OA
BRANCH  20  21
ATOM     21  S   IDU d1623      61.308  45.256  41.435  0.00  0.00     0.252 S 
ATOM     22  O3S IDU d1623      60.504  44.382  42.205  0.00  0.00    -0.572 OA
ATOM     23  O1S IDU d1623      61.011  45.224  40.034  0.00  0.00    -0.572 OA
ATOM     24  O2S IDU d1623      61.047  46.594  41.944  0.00  0.00    -0.572 OA
ENDBRANCH  20  21
ENDBRANCH  13  20
ENDBRANCH   7   8
ENDBRANCH   4   7
BRANCH   3  25
ATOM     25  C6  SGN d5702      63.237  42.945  37.726  0.00  0.00     0.227 C 
BRANCH  25  26
ATOM     26  O6  SGN d5702      63.516  42.681  36.359  0.00  0.00    -0.254 OA
BRANCH  26  27
ATOM     27  S2  SGN d5702      62.865  43.744  35.159  0.00  0.00     0.251 S 
ATOM     28  O4S SGN d5702      63.254  43.345  33.845  0.00  0.00    -0.572 OA
ATOM     29  O5S SGN d5702      63.354  45.070  35.413  0.00  0.00    -0.572 OA
ATOM     30  O6S SGN d5702      61.442  43.633  35.289  0.00  0.00    -0.572 OA
ENDBRANCH  26  27
ENDBRANCH  25  26
ENDBRANCH   3  25
BRANCH   5  31
ATOM     31  O3  SGN d5702      62.725  39.310  41.029  0.00  0.00    -0.391 OA
ATOM     32  H   SGN d5702      62.404  39.826  41.785  0.00  0.00     0.210 HD
ENDBRANCH   5  31
BRANCH   2  33
ATOM     33  N   SGN d5702      61.850  37.686  38.922  0.00  0.00    -0.189 NA
ATOM     34  H   SGN d5702      61.251  37.490  38.120  0.00  0.00     0.143 HD
BRANCH  33  35
ATOM     35  S1  SGN d5702      62.983  36.347  39.130  0.00  0.00     0.183 S 
ATOM     36  O1S SGN d5702      62.239  35.178  39.555  0.00  0.00    -0.582 OA
ATOM     37  O2S SGN d5702      63.898  36.677  40.173  0.00  0.00    -0.582 OA
ATOM     38  O3S SGN d5702      63.629  36.192  37.840  0.00  0.00    -0.582 OA
ENDBRANCH  33  35
ENDBRANCH   2  33
BRANCH   6  39
ATOM     39  O1  SGN d5702      60.610  39.633  37.373  0.00  0.00    -0.369 OA
ATOM     40  H   SGN d5702      60.198  38.758  37.449  0.00  0.00     0.212 HD
ENDBRANCH   6  39
TORSDOF 14
ENDMDL
MODEL 60
REMARK VINA RESULT:      -3.5      3.982      6.924
REMARK  14 active torsions:
REMARK  status: ('A' for Active; 'I' for Inactive)
REMARK    1  A    between atoms: C5_1  and  C6_23 
REMARK    2  A    between atoms: S2_5  and  O6_7 
REMARK    3  A    between atoms: O1_6  and  C1_35 
REMARK    4  A    between atoms: O6_7  and  C6_21 
REMARK    5  A    between atoms: O2_9  and  C2_28 
REMARK    6  A    between atoms: O2_9  and  S_13 
REMARK    7  A    between atoms: C3_10  and  O3_20 
REMARK    8  A    between atoms: C1_11  and  O4_12 
REMARK    9  A    between atoms: O4_12  and  C4_19 
REMARK   10  A    between atoms: C2_15  and  N_29 
REMARK   11  A    between atoms: C5_17  and  C6_21 
REMARK   12  A    between atoms: C6_23  and  O61_33 
REMARK   13  A    between atoms: O3_24  and  C3_26 
REMARK   14  A    between atoms: S1_27  and  N_29 
ROOT
ATOM      1  O5  SGN d5702      63.770  34.994  37.797  0.00  0.00    -0.350 OA
ATOM      2  C2  SGN d5702      65.449  35.710  36.238  0.00  0.00     0.160 C 
ATOM      3  C5  SGN d5702      63.686  36.260  38.406  0.00  0.00     0.181 C 
ATOM      4  C4  SGN d5702      64.062  37.342  37.374  0.00  0.00     0.186 C 
ATOM      5  C3  SGN d5702      65.515  37.059  36.905  0.00  0.00     0.173 C 
ATOM      6  C1  SGN d5702      65.040  34.646  37.240  0.00  0.00     0.278 C 
ENDROOT
BRANCH   4   7
ATOM      7  O4  SGN d5702      63.940  38.618  38.060  0.00  0.00    -0.348 OA
BRANCH   7   8
ATOM      8  C1  IDU d1623      63.609  39.858  37.470  0.00  0.00     0.294 C 
ATOM      9  O5  IDU d1623      62.283  39.874  36.849  0.00  0.00    -0.343 OA
ATOM     10  C5  IDU d1623      61.981  41.117  36.121  0.00  0.00     0.224 C 
ATOM     11  C4  IDU d1623      62.019  42.292  37.111  0.00  0.00     0.077 C 
ATOM     12  C3  IDU d1623      63.394  42.349  37.793  0.00  0.00     0.156 C 
ATOM     13  C2  IDU d1623      63.625  41.003  38.496  0.00  0.00     0.228 C 
BRANCH  10  14
ATOM     14  C6  IDU d1623      60.613  41.070  35.497  0.00  0.00     0.170 C 
ATOM     15  O62 IDU d1623      59.899  42.081  35.575  0.00  0.00    -0.648 OA
BRANCH  14  16
ATOM     16  O61 IDU d1623      60.267  40.011  34.934  0.00  0.00    -0.774 OA
ENDBRANCH  14  16
ENDBRANCH  10  14
BRANCH  12  18
ATOM     18  O3  IDU d1623      64.386  42.564  36.828  0.00  0.00    -0.393 OA
ATOM     19  H   IDU d1623      64.217  43.404  36.373  0.00  0.00     0.210 HD
ENDBRANCH  12  18
BRANCH  13  20
ATOM     20  O2  IDU d1623      62.588  40.762  39.417  0.00  0.00    -0.244 OA
BRANCH  20  21
ATOM     21  S   IDU d1623      62.800  41.309  41.047  0.00  0.00     0.252 S 
ATOM     22  O3S IDU d1623      64.174  41.472  41.345  0.00  0.00    -0.572 OA
ATOM     23  O1S IDU d1623      62.138  40.360  41.890  0.00  0.00    -0.572 OA
ATOM     24  O2S IDU d1623      62.192  42.618  41.236  0.00  0.00    -0.572 OA
ENDBRANCH  20  21
ENDBRANCH  13  20
ENDBRANCH   7   8
ENDBRANCH   4   7
BRANCH   3  25
ATOM     25  C6  SGN d5702      62.284  36.418  38.905  0.00  0.00     0.227 C 
BRANCH  25  26
ATOM     26  O6  SGN d5702      62.446  36.524  40.312  0.00  0.00    -0.254 OA
BRANCH  26  27
ATOM     27  S2  SGN d5702      62.550  35.070  41.246  0.00  0.00     0.251 S 
ATOM     28  O4S SGN d5702      63.899  34.785  41.613  0.00  0.00    -0.572 OA
ATOM     29  O5S SGN d5702      62.036  33.986  40.458  0.00  0.00    -0.572 OA
ATOM     30  O6S SGN d5702      61.779  35.325  42.428  0.00  0.00    -0.572 OA
ENDBRANCH  26  27
ENDBRANCH  25  26
ENDBRANCH   3  25
BRANCH   5  31
ATOM     31  O3  SGN d5702      65.903  38.015  35.948  0.00  0.00    -0.391 OA
ATOM     32  H   SGN d5702      65.787  38.905  36.315  0.00  0.00     0.210 HD
ENDBRANCH   5  31
BRANCH   2  33
ATOM     33  N   SGN d5702      66.731  35.348  35.728  0.00  0.00    -0.189 NA
ATOM     34  H   SGN d5702      67.005  34.452  36.131  0.00  0.00     0.143 HD
BRANCH  33  35
ATOM     35  S1  SGN d5702      66.724  35.204  33.967  0.00  0.00     0.183 S 
ATOM     36  O1S SGN d5702      65.876  36.247  33.425  0.00  0.00    -0.582 OA
ATOM     37  O2S SGN d5702      66.144  33.950  33.612  0.00  0.00    -0.582 OA
ATOM     38  O3S SGN d5702      68.114  35.315  33.571  0.00  0.00    -0.582 OA
ENDBRANCH  33  35
ENDBRANCH   2  33
BRANCH   6  39
ATOM     39  O1  SGN d5702      65.994  34.465  38.259  0.00  0.00    -0.369 OA
ATOM     40  H   SGN d5702      65.692  34.909  39.067  0.00  0.00     0.212 HD
ENDBRANCH   6  39
TORSDOF 14
ENDMDL
MODEL 61
REMARK VINA RESULT:      -3.5      3.470      6.537
REMARK  14 active torsions:
REMARK  status: ('A' for Active; 'I' for Inactive)
REMARK    1  A    between atoms: C5_1  and  C6_23 
REMARK    2  A    between atoms: S2_5  and  O6_7 
REMARK    3  A    between atoms: O1_6  and  C1_35 
REMARK    4  A    between atoms: O6_7  and  C6_21 
REMARK    5  A    between atoms: O2_9  and  C2_28 
REMARK    6  A    between atoms: O2_9  and  S_13 
REMARK    7  A    between atoms: C3_10  and  O3_20 
REMARK    8  A    between atoms: C1_11  and  O4_12 
REMARK    9  A    between atoms: O4_12  and  C4_19 
REMARK   10  A    between atoms: C2_15  and  N_29 
REMARK   11  A    between atoms: C5_17  and  C6_21 
REMARK   12  A    between atoms: C6_23  and  O61_33 
REMARK   13  A    between atoms: O3_24  and  C3_26 
REMARK   14  A    between atoms: S1_27  and  N_29 
ROOT
ATOM      1  O5  SGN d5702      63.706  36.763  38.691  0.00  0.00    -0.350 OA
ATOM      2  C2  SGN d5702      62.418  37.383  40.620  0.00  0.00     0.160 C 
ATOM      3  C5  SGN d5702      63.453  37.982  38.035  0.00  0.00     0.181 C 
ATOM      4  C4  SGN d5702      63.221  39.083  39.089  0.00  0.00     0.186 C 
ATOM      5  C3  SGN d5702      61.997  38.662  39.946  0.00  0.00     0.173 C 
ATOM      6  C1  SGN d5702      62.688  36.305  39.586  0.00  0.00     0.278 C 
ENDROOT
BRANCH   4   7
ATOM      7  O4  SGN d5702      62.983  40.311  38.348  0.00  0.00    -0.348 OA
BRANCH   7   8
ATOM      8  C1  IDU d1623      63.351  41.615  38.748  0.00  0.00     0.294 C 
ATOM      9  O5  IDU d1623      64.799  41.835  38.762  0.00  0.00    -0.343 OA
ATOM     10  C5  IDU d1623      65.196  43.146  39.299  0.00  0.00     0.224 C 
ATOM     11  C4  IDU d1623      64.591  44.248  38.414  0.00  0.00     0.077 C 
ATOM     12  C3  IDU d1623      63.064  44.090  38.365  0.00  0.00     0.156 C 
ATOM     13  C2  IDU d1623      62.755  42.687  37.822  0.00  0.00     0.228 C 
BRANCH  10  14
ATOM     14  C6  IDU d1623      66.692  43.309  39.298  0.00  0.00     0.170 C 
ATOM     15  O62 IDU d1623      67.374  42.451  38.717  0.00  0.00    -0.648 OA
BRANCH  14  16
ATOM     16  O61 IDU d1623      67.168  44.303  39.884  0.00  0.00    -0.774 OA
ENDBRANCH  14  16
ENDBRANCH  10  14
BRANCH  12  18
ATOM     18  O3  IDU d1623      62.537  44.233  39.655  0.00  0.00    -0.393 OA
ATOM     19  H   IDU d1623      61.568  44.209  39.613  0.00  0.00     0.210 HD
ENDBRANCH  12  18
BRANCH  13  20
ATOM     20  O2  IDU d1623      63.343  42.527  36.552  0.00  0.00    -0.244 OA
BRANCH  20  21
ATOM     21  S   IDU d1623      62.300  42.451  35.171  0.00  0.00     0.252 S 
ATOM     22  O3S IDU d1623      62.125  41.112  34.750  0.00  0.00    -0.572 OA
ATOM     23  O1S IDU d1623      62.878  43.297  34.171  0.00  0.00    -0.572 OA
ATOM     24  O2S IDU d1623      60.971  42.944  35.500  0.00  0.00    -0.572 OA
ENDBRANCH  20  21
ENDBRANCH  13  20
ENDBRANCH   7   8
ENDBRANCH   4   7
BRANCH   3  25
ATOM     25  C6  SGN d5702      64.639  38.271  37.168  0.00  0.00     0.227 C 
BRANCH  25  26
ATOM     26  O6  SGN d5702      65.470  37.136  37.358  0.00  0.00    -0.254 OA
BRANCH  26  27
ATOM     27  S2  SGN d5702      66.020  36.267  35.966  0.00  0.00     0.251 S 
ATOM     28  O4S SGN d5702      65.117  35.218  35.618  0.00  0.00    -0.572 OA
ATOM     29  O5S SGN d5702      67.306  35.704  36.260  0.00  0.00    -0.572 OA
ATOM     30  O6S SGN d5702      66.055  37.235  34.908  0.00  0.00    -0.572 OA
ENDBRANCH  26  27
ENDBRANCH  25  26
ENDBRANCH   3  25
BRANCH   5  31
ATOM     31  O3  SGN d5702      61.750  39.631  40.935  0.00  0.00    -0.391 OA
ATOM     32  H   SGN d5702      60.901  40.066  40.758  0.00  0.00     0.210 HD
ENDBRANCH   5  31
BRANCH   2  33
ATOM     33  N   SGN d5702      61.380  36.907  41.473  0.00  0.00    -0.189 NA
ATOM     34  H   SGN d5702      61.100  35.976  41.164  0.00  0.00     0.143 HD
BRANCH  33  35
ATOM     35  S1  SGN d5702      61.898  36.818  43.159  0.00  0.00     0.183 S 
ATOM     36  O1S SGN d5702      62.755  35.659  43.315  0.00  0.00    -0.582 OA
ATOM     37  O2S SGN d5702      60.751  36.617  43.982  0.00  0.00    -0.582 OA
ATOM     38  O3S SGN d5702      62.567  38.078  43.419  0.00  0.00    -0.582 OA
ENDBRANCH  33  35
ENDBRANCH   2  33
BRANCH   6  39
ATOM     39  O1  SGN d5702      61.532  35.937  38.872  0.00  0.00    -0.369 OA
ATOM     40  H   SGN d5702      61.077  36.735  38.561  0.00  0.00     0.212 HD
ENDBRANCH   6  39
TORSDOF 14
ENDMDL
MODEL 62
REMARK VINA RESULT:      -3.5      3.516      6.900
REMARK  14 active torsions:
REMARK  status: ('A' for Active; 'I' for Inactive)
REMARK    1  A    between atoms: C5_1  and  C6_23 
REMARK    2  A    between atoms: S2_5  and  O6_7 
REMARK    3  A    between atoms: O1_6  and  C1_35 
REMARK    4  A    between atoms: O6_7  and  C6_21 
REMARK    5  A    between atoms: O2_9  and  C2_28 
REMARK    6  A    between atoms: O2_9  and  S_13 
REMARK    7  A    between atoms: C3_10  and  O3_20 
REMARK    8  A    between atoms: C1_11  and  O4_12 
REMARK    9  A    between atoms: O4_12  and  C4_19 
REMARK   10  A    between atoms: C2_15  and  N_29 
REMARK   11  A    between atoms: C5_17  and  C6_21 
REMARK   12  A    between atoms: C6_23  and  O61_33 
REMARK   13  A    between atoms: O3_24  and  C3_26 
REMARK   14  A    between atoms: S1_27  and  N_29 
ROOT
ATOM      1  O5  SGN d5702      64.022  37.294  37.407  0.00  0.00    -0.350 OA
ATOM      2  C2  SGN d5702      65.550  38.422  35.939  0.00  0.00     0.160 C 
ATOM      3  C5  SGN d5702      63.803  38.443  38.188  0.00  0.00     0.181 C 
ATOM      4  C4  SGN d5702      64.011  39.695  37.313  0.00  0.00     0.186 C 
ATOM      5  C3  SGN d5702      65.471  39.664  36.788  0.00  0.00     0.173 C 
ATOM      6  C1  SGN d5702      65.307  37.187  36.787  0.00  0.00     0.278 C 
ENDROOT
BRANCH   4   7
ATOM      7  O4  SGN d5702      63.755  40.839  38.173  0.00  0.00    -0.348 OA
BRANCH   7   8
ATOM      8  C1  IDU d1623      63.361  42.130  37.755  0.00  0.00     0.294 C 
ATOM      9  O5  IDU d1623      61.989  42.186  37.248  0.00  0.00    -0.343 OA
ATOM     10  C5  IDU d1623      61.613  43.496  36.692  0.00  0.00     0.224 C 
ATOM     11  C4  IDU d1623      61.717  44.555  37.803  0.00  0.00     0.077 C 
ATOM     12  C3  IDU d1623      63.144  44.564  38.375  0.00  0.00     0.156 C 
ATOM     13  C2  IDU d1623      63.448  43.153  38.900  0.00  0.00     0.228 C 
BRANCH  10  14
ATOM     14  C6  IDU d1623      60.199  43.490  36.179  0.00  0.00     0.170 C 
ATOM     15  O62 IDU d1623      59.831  42.527  35.488  0.00  0.00    -0.648 OA
BRANCH  14  16
ATOM     16  O61 IDU d1623      59.470  44.459  36.475  0.00  0.00    -0.774 OA
ENDBRANCH  14  16
ENDBRANCH  10  14
BRANCH  12  18
ATOM     18  O3  IDU d1623      64.050  44.907  37.364  0.00  0.00    -0.393 OA
ATOM     19  H   IDU d1623      64.265  45.851  37.429  0.00  0.00     0.210 HD
ENDBRANCH  12  18
BRANCH  13  20
ATOM     20  O2  IDU d1623      62.493  42.788  39.868  0.00  0.00    -0.244 OA
BRANCH  20  21
ATOM     21  S   IDU d1623      63.061  42.191  41.392  0.00  0.00     0.252 S 
ATOM     22  O3S IDU d1623      62.376  41.006  41.751  0.00  0.00    -0.572 OA
ATOM     23  O1S IDU d1623      62.900  43.255  42.337  0.00  0.00    -0.572 OA
ATOM     24  O2S IDU d1623      64.469  41.834  41.315  0.00  0.00    -0.572 OA
ENDBRANCH  20  21
ENDBRANCH  13  20
ENDBRANCH   7   8
ENDBRANCH   4   7
BRANCH   3  25
ATOM     25  C6  SGN d5702      62.409  38.353  38.725  0.00  0.00     0.227 C 
BRANCH  25  26
ATOM     26  O6  SGN d5702      62.602  37.996  40.085  0.00  0.00    -0.254 OA
BRANCH  26  27
ATOM     27  S2  SGN d5702      62.530  36.323  40.522  0.00  0.00     0.251 S 
ATOM     28  O4S SGN d5702      61.886  35.549  39.510  0.00  0.00    -0.572 OA
ATOM     29  O5S SGN d5702      61.792  36.204  41.747  0.00  0.00    -0.572 OA
ATOM     30  O6S SGN d5702      63.896  35.905  40.642  0.00  0.00    -0.572 OA
ENDBRANCH  26  27
ENDBRANCH  25  26
ENDBRANCH   3  25
BRANCH   5  31
ATOM     31  O3  SGN d5702      65.708  40.783  35.969  0.00  0.00    -0.391 OA
ATOM     32  H   SGN d5702      66.526  41.222  36.250  0.00  0.00     0.210 HD
ENDBRANCH   5  31
BRANCH   2  33
ATOM     33  N   SGN d5702      66.849  38.298  35.364  0.00  0.00    -0.189 NA
ATOM     34  H   SGN d5702      67.253  37.406  35.652  0.00  0.00     0.143 HD
BRANCH  33  35
ATOM     35  S1  SGN d5702      66.799  38.359  33.600  0.00  0.00     0.183 S 
ATOM     36  O1S SGN d5702      68.160  38.407  33.103  0.00  0.00    -0.582 OA
ATOM     37  O2S SGN d5702      66.153  39.567  33.200  0.00  0.00    -0.582 OA
ATOM     38  O3S SGN d5702      66.071  37.171  33.198  0.00  0.00    -0.582 OA
ENDBRANCH  33  35
ENDBRANCH   2  33
BRANCH   6  39
ATOM     39  O1  SGN d5702      66.308  36.990  37.757  0.00  0.00    -0.369 OA
ATOM     40  H   SGN d5702      66.739  36.134  37.605  0.00  0.00     0.212 HD
ENDBRANCH   6  39
TORSDOF 14
ENDMDL
MODEL 63
REMARK VINA RESULT:      -3.5      3.341      7.376
REMARK  14 active torsions:
REMARK  status: ('A' for Active; 'I' for Inactive)
REMARK    1  A    between atoms: C5_1  and  C6_23 
REMARK    2  A    between atoms: S2_5  and  O6_7 
REMARK    3  A    between atoms: O1_6  and  C1_35 
REMARK    4  A    between atoms: O6_7  and  C6_21 
REMARK    5  A    between atoms: O2_9  and  C2_28 
REMARK    6  A    between atoms: O2_9  and  S_13 
REMARK    7  A    between atoms: C3_10  and  O3_20 
REMARK    8  A    between atoms: C1_11  and  O4_12 
REMARK    9  A    between atoms: O4_12  and  C4_19 
REMARK   10  A    between atoms: C2_15  and  N_29 
REMARK   11  A    between atoms: C5_17  and  C6_21 
REMARK   12  A    between atoms: C6_23  and  O61_33 
REMARK   13  A    between atoms: O3_24  and  C3_26 
REMARK   14  A    between atoms: S1_27  and  N_29 
ROOT
ATOM      1  O5  SGN d5702      63.126  44.032  37.629  0.00  0.00    -0.350 OA
ATOM      2  C2  SGN d5702      63.171  43.718  35.249  0.00  0.00     0.160 C 
ATOM      3  C5  SGN d5702      63.134  42.650  37.889  0.00  0.00     0.181 C 
ATOM      4  C4  SGN d5702      63.848  41.923  36.732  0.00  0.00     0.186 C 
ATOM      5  C3  SGN d5702      63.059  42.227  35.430  0.00  0.00     0.173 C 
ATOM      6  C1  SGN d5702      62.506  44.440  36.406  0.00  0.00     0.278 C 
ENDROOT
BRANCH   4   7
ATOM      7  O4  SGN d5702      63.835  40.509  37.071  0.00  0.00    -0.348 OA
BRANCH   7   8
ATOM      8  C1  IDU d1623      64.878  39.584  36.844  0.00  0.00     0.294 C 
ATOM      9  O5  IDU d1623      66.053  39.811  37.688  0.00  0.00    -0.343 OA
ATOM     10  C5  IDU d1623      67.192  38.934  37.371  0.00  0.00     0.224 C 
ATOM     11  C4  IDU d1623      66.768  37.472  37.589  0.00  0.00     0.077 C 
ATOM     12  C3  IDU d1623      65.543  37.155  36.718  0.00  0.00     0.156 C 
ATOM     13  C2  IDU d1623      64.426  38.137  37.104  0.00  0.00     0.228 C 
BRANCH  10  14
ATOM     14  C6  IDU d1623      68.370  39.221  38.261  0.00  0.00     0.170 C 
ATOM     15  O62 IDU d1623      68.310  38.859  39.446  0.00  0.00    -0.648 OA
BRANCH  14  16
ATOM     16  O61 IDU d1623      69.348  39.810  37.758  0.00  0.00    -0.774 OA
ENDBRANCH  14  16
ENDBRANCH  10  14
BRANCH  12  18
ATOM     18  O3  IDU d1623      65.876  37.312  35.367  0.00  0.00    -0.393 OA
ATOM     19  H   IDU d1623      66.683  36.810  35.172  0.00  0.00     0.210 HD
ENDBRANCH  12  18
BRANCH  13  20
ATOM     20  O2  IDU d1623      64.142  38.020  38.478  0.00  0.00    -0.244 OA
BRANCH  20  21
ATOM     21  S   IDU d1623      62.500  37.740  38.952  0.00  0.00     0.252 S 
ATOM     22  O3S IDU d1623      62.237  38.327  40.213  0.00  0.00    -0.572 OA
ATOM     23  O1S IDU d1623      62.299  36.323  38.925  0.00  0.00    -0.572 OA
ATOM     24  O2S IDU d1623      61.578  38.368  38.018  0.00  0.00    -0.572 OA
ENDBRANCH  20  21
ENDBRANCH  13  20
ENDBRANCH   7   8
ENDBRANCH   4   7
BRANCH   3  25
ATOM     25  C6  SGN d5702      63.833  42.451  39.198  0.00  0.00     0.227 C 
BRANCH  25  26
ATOM     26  O6  SGN d5702      64.431  43.714  39.447  0.00  0.00    -0.254 OA
BRANCH  26  27
ATOM     27  S2  SGN d5702      66.157  43.836  39.407  0.00  0.00     0.251 S 
ATOM     28  O4S SGN d5702      66.600  44.570  38.266  0.00  0.00    -0.572 OA
ATOM     29  O5S SGN d5702      66.705  42.511  39.357  0.00  0.00    -0.572 OA
ATOM     30  O6S SGN d5702      66.512  44.550  40.598  0.00  0.00    -0.572 OA
ENDBRANCH  26  27
ENDBRANCH  25  26
ENDBRANCH   3  25
BRANCH   5  31
ATOM     31  O3  SGN d5702      63.680  41.594  34.337  0.00  0.00    -0.391 OA
ATOM     32  H   SGN d5702      64.087  40.765  34.631  0.00  0.00     0.210 HD
ENDBRANCH   5  31
BRANCH   2  33
ATOM     33  N   SGN d5702      62.509  44.122  34.053  0.00  0.00    -0.189 NA
ATOM     34  H   SGN d5702      61.874  44.890  34.272  0.00  0.00     0.143 HD
BRANCH  33  35
ATOM     35  S1  SGN d5702      63.649  44.660  32.816  0.00  0.00     0.183 S 
ATOM     36  O1S SGN d5702      63.224  44.125  31.537  0.00  0.00    -0.582 OA
ATOM     37  O2S SGN d5702      64.933  44.111  33.106  0.00  0.00    -0.582 OA
ATOM     38  O3S SGN d5702      63.625  46.108  32.881  0.00  0.00    -0.582 OA
ENDBRANCH  33  35
ENDBRANCH   2  33
BRANCH   6  39
ATOM     39  O1  SGN d5702      61.117  44.217  36.458  0.00  0.00    -0.369 OA
ATOM     40  H   SGN d5702      60.912  43.628  37.202  0.00  0.00     0.212 HD
ENDBRANCH   6  39
TORSDOF 14
ENDMDL
MODEL 64
REMARK VINA RESULT:      -3.5      2.936      8.230
REMARK  14 active torsions:
REMARK  status: ('A' for Active; 'I' for Inactive)
REMARK    1  A    between atoms: C5_1  and  C6_23 
REMARK    2  A    between atoms: S2_5  and  O6_7 
REMARK    3  A    between atoms: O1_6  and  C1_35 
REMARK    4  A    between atoms: O6_7  and  C6_21 
REMARK    5  A    between atoms: O2_9  and  C2_28 
REMARK    6  A    between atoms: O2_9  and  S_13 
REMARK    7  A    between atoms: C3_10  and  O3_20 
REMARK    8  A    between atoms: C1_11  and  O4_12 
REMARK    9  A    between atoms: O4_12  and  C4_19 
REMARK   10  A    between atoms: C2_15  and  N_29 
REMARK   11  A    between atoms: C5_17  and  C6_21 
REMARK   12  A    between atoms: C6_23  and  O61_33 
REMARK   13  A    between atoms: O3_24  and  C3_26 
REMARK   14  A    between atoms: S1_27  and  N_29 
ROOT
ATOM      1  O5  SGN d5702      64.550  40.642  35.684  0.00  0.00    -0.350 OA
ATOM      2  C2  SGN d5702      62.530  41.324  36.787  0.00  0.00     0.160 C 
ATOM      3  C5  SGN d5702      64.871  39.705  36.684  0.00  0.00     0.181 C 
ATOM      4  C4  SGN d5702      63.570  39.206  37.343  0.00  0.00     0.186 C 
ATOM      5  C3  SGN d5702      62.854  40.437  37.961  0.00  0.00     0.173 C 
ATOM      6  C1  SGN d5702      63.806  41.787  36.108  0.00  0.00     0.278 C 
ENDROOT
BRANCH   4   7
ATOM      7  O4  SGN d5702      63.971  38.235  38.349  0.00  0.00    -0.348 OA
BRANCH   7   8
ATOM      8  C1  IDU d1623      63.228  37.110  38.770  0.00  0.00     0.294 C 
ATOM      9  O5  IDU d1623      63.233  36.011  37.803  0.00  0.00    -0.343 OA
ATOM     10  C5  IDU d1623      62.358  34.887  38.174  0.00  0.00     0.224 C 
ATOM     11  C4  IDU d1623      62.844  34.301  39.510  0.00  0.00     0.077 C 
ATOM     12  C3  IDU d1623      62.850  35.400  40.584  0.00  0.00     0.156 C 
ATOM     13  C2  IDU d1623      63.763  36.533  40.091  0.00  0.00     0.228 C 
BRANCH  10  14
ATOM     14  C6  IDU d1623      62.397  33.796  37.139  0.00  0.00     0.170 C 
ATOM     15  O62 IDU d1623      61.319  33.346  36.721  0.00  0.00    -0.648 OA
BRANCH  14  16
ATOM     16  O61 IDU d1623      63.517  33.398  36.757  0.00  0.00    -0.774 OA
ENDBRANCH  14  16
ENDBRANCH  10  14
BRANCH  12  18
ATOM     18  O3  IDU d1623      61.547  35.879  40.770  0.00  0.00    -0.393 OA
ATOM     19  H   IDU d1623      60.962  35.141  41.005  0.00  0.00     0.210 HD
ENDBRANCH  12  18
BRANCH  13  20
ATOM     20  O2  IDU d1623      65.054  36.031  39.843  0.00  0.00    -0.244 OA
BRANCH  20  21
ATOM     21  S   IDU d1623      66.383  36.730  40.706  0.00  0.00     0.252 S 
ATOM     22  O3S IDU d1623      67.562  36.692  39.924  0.00  0.00    -0.572 OA
ATOM     23  O1S IDU d1623      66.492  36.019  41.944  0.00  0.00    -0.572 OA
ATOM     24  O2S IDU d1623      66.134  38.136  40.987  0.00  0.00    -0.572 OA
ENDBRANCH  20  21
ENDBRANCH  13  20
ENDBRANCH   7   8
ENDBRANCH   4   7
BRANCH   3  25
ATOM     25  C6  SGN d5702      65.632  38.597  36.024  0.00  0.00     0.227 C 
BRANCH  25  26
ATOM     26  O6  SGN d5702      66.457  39.277  35.089  0.00  0.00    -0.254 OA
BRANCH  26  27
ATOM     27  S2  SGN d5702      66.619  38.621  33.496  0.00  0.00     0.251 S 
ATOM     28  O4S SGN d5702      66.752  37.201  33.529  0.00  0.00    -0.572 OA
ATOM     29  O5S SGN d5702      67.788  39.190  32.887  0.00  0.00    -0.572 OA
ATOM     30  O6S SGN d5702      65.403  38.969  32.820  0.00  0.00    -0.572 OA
ENDBRANCH  26  27
ENDBRANCH  25  26
ENDBRANCH   3  25
BRANCH   5  31
ATOM     31  O3  SGN d5702      61.649  40.035  38.566  0.00  0.00    -0.391 OA
ATOM     32  H   SGN d5702      61.787  39.200  39.039  0.00  0.00     0.210 HD
ENDBRANCH   5  31
BRANCH   2  33
ATOM     33  N   SGN d5702      61.831  42.487  37.225  0.00  0.00    -0.189 NA
ATOM     34  H   SGN d5702      62.504  43.241  37.370  0.00  0.00     0.143 HD
BRANCH  33  35
ATOM     35  S1  SGN d5702      60.626  43.016  36.047  0.00  0.00     0.183 S 
ATOM     36  O1S SGN d5702      61.281  43.861  35.068  0.00  0.00    -0.582 OA
ATOM     37  O2S SGN d5702      59.649  43.811  36.715  0.00  0.00    -0.582 OA
ATOM     38  O3S SGN d5702      60.077  41.794  35.491  0.00  0.00    -0.582 OA
ENDBRANCH  33  35
ENDBRANCH   2  33
BRANCH   6  39
ATOM     39  O1  SGN d5702      64.594  42.609  36.937  0.00  0.00    -0.369 OA
ATOM     40  H   SGN d5702      64.056  42.931  37.677  0.00  0.00     0.212 HD
ENDBRANCH   6  39
TORSDOF 14
ENDMDL
MODEL 65
REMARK VINA RESULT:      -3.5      3.991      8.430
REMARK  14 active torsions:
REMARK  status: ('A' for Active; 'I' for Inactive)
REMARK    1  A    between atoms: C5_1  and  C6_23 
REMARK    2  A    between atoms: S2_5  and  O6_7 
REMARK    3  A    between atoms: O1_6  and  C1_35 
REMARK    4  A    between atoms: O6_7  and  C6_21 
REMARK    5  A    between atoms: O2_9  and  C2_28 
REMARK    6  A    between atoms: O2_9  and  S_13 
REMARK    7  A    between atoms: C3_10  and  O3_20 
REMARK    8  A    between atoms: C1_11  and  O4_12 
REMARK    9  A    between atoms: O4_12  and  C4_19 
REMARK   10  A    between atoms: C2_15  and  N_29 
REMARK   11  A    between atoms: C5_17  and  C6_21 
REMARK   12  A    between atoms: C6_23  and  O61_33 
REMARK   13  A    between atoms: O3_24  and  C3_26 
REMARK   14  A    between atoms: S1_27  and  N_29 
ROOT
ATOM      1  O5  SGN d5702      62.200  45.058  38.546  0.00  0.00    -0.350 OA
ATOM      2  C2  SGN d5702      62.465  43.848  36.489  0.00  0.00     0.160 C 
ATOM      3  C5  SGN d5702      62.036  43.884  39.305  0.00  0.00     0.181 C 
ATOM      4  C4  SGN d5702      62.790  42.729  38.615  0.00  0.00     0.186 C 
ATOM      5  C3  SGN d5702      62.181  42.550  37.199  0.00  0.00     0.173 C 
ATOM      6  C1  SGN d5702      61.759  44.996  37.186  0.00  0.00     0.278 C 
ENDROOT
BRANCH   4   7
ATOM      7  O4  SGN d5702      62.594  41.558  39.455  0.00  0.00    -0.348 OA
BRANCH   7   8
ATOM      8  C1  IDU d1623      63.543  40.544  39.713  0.00  0.00     0.294 C 
ATOM      9  O5  IDU d1623      64.762  41.036  40.359  0.00  0.00    -0.343 OA
ATOM     10  C5  IDU d1623      65.807  40.012  40.515  0.00  0.00     0.224 C 
ATOM     11  C4  IDU d1623      65.264  38.880  41.402  0.00  0.00     0.077 C 
ATOM     12  C3  IDU d1623      63.986  38.301  40.776  0.00  0.00     0.156 C 
ATOM     13  C2  IDU d1623      62.975  39.448  40.629  0.00  0.00     0.228 C 
BRANCH  10  14
ATOM     14  C6  IDU d1623      67.037  40.578  41.173  0.00  0.00     0.170 C 
ATOM     15  O62 IDU d1623      68.143  40.149  40.814  0.00  0.00    -0.648 OA
BRANCH  14  16
ATOM     16  O61 IDU d1623      66.875  41.451  42.050  0.00  0.00    -0.774 OA
ENDBRANCH  14  16
ENDBRANCH  10  14
BRANCH  12  18
ATOM     18  O3  IDU d1623      64.285  37.760  39.519  0.00  0.00    -0.393 OA
ATOM     19  H   IDU d1623      64.530  38.474  38.910  0.00  0.00     0.210 HD
ENDBRANCH  12  18
BRANCH  13  20
ATOM     20  O2  IDU d1623      62.729  40.031  41.887  0.00  0.00    -0.244 OA
BRANCH  20  21
ATOM     21  S   IDU d1623      61.544  39.292  42.912  0.00  0.00     0.252 S 
ATOM     22  O3S IDU d1623      60.685  40.270  43.468  0.00  0.00    -0.572 OA
ATOM     23  O1S IDU d1623      62.261  38.534  43.892  0.00  0.00    -0.572 OA
ATOM     24  O2S IDU d1623      60.688  38.395  42.150  0.00  0.00    -0.572 OA
ENDBRANCH  20  21
ENDBRANCH  13  20
ENDBRANCH   7   8
ENDBRANCH   4   7
BRANCH   3  25
ATOM     25  C6  SGN d5702      62.567  44.167  40.676  0.00  0.00     0.227 C 
BRANCH  25  26
ATOM     26  O6  SGN d5702      61.400  44.476  41.423  0.00  0.00    -0.254 OA
BRANCH  26  27
ATOM     27  S2  SGN d5702      61.028  46.139  41.729  0.00  0.00     0.251 S 
ATOM     28  O4S SGN d5702      62.156  46.977  41.484  0.00  0.00    -0.572 OA
ATOM     29  O5S SGN d5702      60.632  46.270  43.103  0.00  0.00    -0.572 OA
ATOM     30  O6S SGN d5702      59.981  46.467  40.806  0.00  0.00    -0.572 OA
ENDBRANCH  26  27
ENDBRANCH  25  26
ENDBRANCH   3  25
BRANCH   5  31
ATOM     31  O3  SGN d5702      62.845  41.512  36.521  0.00  0.00    -0.391 OA
ATOM     32  H   SGN d5702      63.787  41.526  36.751  0.00  0.00     0.210 HD
ENDBRANCH   5  31
BRANCH   2  33
ATOM     33  N   SGN d5702      61.980  43.796  35.150  0.00  0.00    -0.189 NA
ATOM     34  H   SGN d5702      61.419  44.629  34.970  0.00  0.00     0.143 HD
BRANCH  33  35
ATOM     35  S1  SGN d5702      63.295  43.728  33.973  0.00  0.00     0.183 S 
ATOM     36  O1S SGN d5702      62.942  44.563  32.842  0.00  0.00    -0.582 OA
ATOM     37  O2S SGN d5702      63.416  42.389  33.496  0.00  0.00    -0.582 OA
ATOM     38  O3S SGN d5702      64.471  44.181  34.690  0.00  0.00    -0.582 OA
ENDBRANCH  33  35
ENDBRANCH   2  33
BRANCH   6  39
ATOM     39  O1  SGN d5702      60.357  44.887  37.126  0.00  0.00    -0.369 OA
ATOM     40  H   SGN d5702      60.104  43.951  37.165  0.00  0.00     0.212 HD
ENDBRANCH   6  39
TORSDOF 14
ENDMDL
MODEL 66
REMARK VINA RESULT:      -3.5      3.162      5.094
REMARK  14 active torsions:
REMARK  status: ('A' for Active; 'I' for Inactive)
REMARK    1  A    between atoms: C5_1  and  C6_23 
REMARK    2  A    between atoms: S2_5  and  O6_7 
REMARK    3  A    between atoms: O1_6  and  C1_35 
REMARK    4  A    between atoms: O6_7  and  C6_21 
REMARK    5  A    between atoms: O2_9  and  C2_28 
REMARK    6  A    between atoms: O2_9  and  S_13 
REMARK    7  A    between atoms: C3_10  and  O3_20 
REMARK    8  A    between atoms: C1_11  and  O4_12 
REMARK    9  A    between atoms: O4_12  and  C4_19 
REMARK   10  A    between atoms: C2_15  and  N_29 
REMARK   11  A    between atoms: C5_17  and  C6_21 
REMARK   12  A    between atoms: C6_23  and  O61_33 
REMARK   13  A    between atoms: O3_24  and  C3_26 
REMARK   14  A    between atoms: S1_27  and  N_29 
ROOT
ATOM      1  O5  SGN d5702      61.689  37.920  38.079  0.00  0.00    -0.350 OA
ATOM      2  C2  SGN d5702      63.745  36.682  38.033  0.00  0.00     0.160 C 
ATOM      3  C5  SGN d5702      62.328  39.115  38.460  0.00  0.00     0.181 C 
ATOM      4  C4  SGN d5702      63.775  39.103  37.930  0.00  0.00     0.186 C 
ATOM      5  C3  SGN d5702      64.495  37.878  38.555  0.00  0.00     0.173 C 
ATOM      6  C1  SGN d5702      62.307  36.707  38.518  0.00  0.00     0.278 C 
ENDROOT
BRANCH   4   7
ATOM      7  O4  SGN d5702      64.369  40.365  38.342  0.00  0.00    -0.348 OA
BRANCH   7   8
ATOM      8  C1  IDU d1623      64.810  41.402  37.490  0.00  0.00     0.294 C 
ATOM      9  O5  IDU d1623      63.717  42.194  36.920  0.00  0.00    -0.343 OA
ATOM     10  C5  IDU d1623      64.158  43.192  35.932  0.00  0.00     0.224 C 
ATOM     11  C4  IDU d1623      65.110  44.184  36.621  0.00  0.00     0.077 C 
ATOM     12  C3  IDU d1623      66.296  43.422  37.231  0.00  0.00     0.156 C 
ATOM     13  C2  IDU d1623      65.732  42.391  38.221  0.00  0.00     0.228 C 
BRANCH  10  14
ATOM     14  C6  IDU d1623      62.993  43.965  35.376  0.00  0.00     0.170 C 
ATOM     15  O62 IDU d1623      62.829  43.972  34.147  0.00  0.00    -0.648 OA
BRANCH  14  16
ATOM     16  O61 IDU d1623      62.253  44.562  36.185  0.00  0.00    -0.774 OA
ENDBRANCH  14  16
ENDBRANCH  10  14
BRANCH  12  18
ATOM     18  O3  IDU d1623      67.008  42.773  36.215  0.00  0.00    -0.393 OA
ATOM     19  H   IDU d1623      67.949  42.997  36.286  0.00  0.00     0.210 HD
ENDBRANCH  12  18
BRANCH  13  20
ATOM     20  O2  IDU d1623      64.962  43.044  39.202  0.00  0.00    -0.244 OA
BRANCH  20  21
ATOM     21  S   IDU d1623      65.252  42.649  40.864  0.00  0.00     0.252 S 
ATOM     22  O3S IDU d1623      66.216  41.620  40.972  0.00  0.00    -0.572 OA
ATOM     23  O1S IDU d1623      63.983  42.309  41.434  0.00  0.00    -0.572 OA
ATOM     24  O2S IDU d1623      65.802  43.791  41.578  0.00  0.00    -0.572 OA
ENDBRANCH  20  21
ENDBRANCH  13  20
ENDBRANCH   7   8
ENDBRANCH   4   7
BRANCH   3  25
ATOM     25  C6  SGN d5702      61.526  40.244  37.892  0.00  0.00     0.227 C 
BRANCH  25  26
ATOM     26  O6  SGN d5702      60.822  39.640  36.818  0.00  0.00    -0.254 OA
BRANCH  26  27
ATOM     27  S2  SGN d5702      60.723  40.485  35.311  0.00  0.00     0.251 S 
ATOM     28  O4S SGN d5702      62.010  40.626  34.709  0.00  0.00    -0.572 OA
ATOM     29  O5S SGN d5702      60.173  41.788  35.555  0.00  0.00    -0.572 OA
ATOM     30  O6S SGN d5702      59.893  39.669  34.474  0.00  0.00    -0.572 OA
ENDBRANCH  26  27
ENDBRANCH  25  26
ENDBRANCH   3  25
BRANCH   5  31
ATOM     31  O3  SGN d5702      65.822  37.815  38.091  0.00  0.00    -0.391 OA
ATOM     32  H   SGN d5702      65.915  37.068  37.479  0.00  0.00     0.210 HD
ENDBRANCH   5  31
BRANCH   2  33
ATOM     33  N   SGN d5702      64.338  35.478  38.514  0.00  0.00    -0.189 NA
ATOM     34  H   SGN d5702      63.597  34.828  38.780  0.00  0.00     0.143 HD
BRANCH  33  35
ATOM     35  S1  SGN d5702      65.358  34.710  37.293  0.00  0.00     0.183 S 
ATOM     36  O1S SGN d5702      66.743  34.848  37.699  0.00  0.00    -0.582 OA
ATOM     37  O2S SGN d5702      65.201  35.407  36.058  0.00  0.00    -0.582 OA
ATOM     38  O3S SGN d5702      64.902  33.334  37.227  0.00  0.00    -0.582 OA
ENDBRANCH  33  35
ENDBRANCH   2  33
BRANCH   6  39
ATOM     39  O1  SGN d5702      62.204  36.577  39.916  0.00  0.00    -0.369 OA
ATOM     40  H   SGN d5702      61.273  36.463  40.161  0.00  0.00     0.212 HD
ENDBRANCH   6  39
TORSDOF 14
ENDMDL
MODEL 67
REMARK VINA RESULT:      -3.5      2.967      8.217
REMARK  14 active torsions:
REMARK  status: ('A' for Active; 'I' for Inactive)
REMARK    1  A    between atoms: C5_1  and  C6_23 
REMARK    2  A    between atoms: S2_5  and  O6_7 
REMARK    3  A    between atoms: O1_6  and  C1_35 
REMARK    4  A    between atoms: O6_7  and  C6_21 
REMARK    5  A    between atoms: O2_9  and  C2_28 
REMARK    6  A    between atoms: O2_9  and  S_13 
REMARK    7  A    between atoms: C3_10  and  O3_20 
REMARK    8  A    between atoms: C1_11  and  O4_12 
REMARK    9  A    between atoms: O4_12  and  C4_19 
REMARK   10  A    between atoms: C2_15  and  N_29 
REMARK   11  A    between atoms: C5_17  and  C6_21 
REMARK   12  A    between atoms: C6_23  and  O61_33 
REMARK   13  A    between atoms: O3_24  and  C3_26 
REMARK   14  A    between atoms: S1_27  and  N_29 
ROOT
ATOM      1  O5  SGN d5702      64.442  40.165  35.693  0.00  0.00    -0.350 OA
ATOM      2  C2  SGN d5702      62.495  40.967  36.846  0.00  0.00     0.160 C 
ATOM      3  C5  SGN d5702      64.802  39.299  36.742  0.00  0.00     0.181 C 
ATOM      4  C4  SGN d5702      63.530  38.876  37.505  0.00  0.00     0.186 C 
ATOM      5  C3  SGN d5702      62.868  40.163  38.064  0.00  0.00     0.173 C 
ATOM      6  C1  SGN d5702      63.740  41.353  36.068  0.00  0.00     0.278 C 
ENDROOT
BRANCH   4   7
ATOM      7  O4  SGN d5702      63.969  37.975  38.559  0.00  0.00    -0.348 OA
BRANCH   7   8
ATOM      8  C1  IDU d1623      63.375  36.742  38.908  0.00  0.00     0.294 C 
ATOM      9  O5  IDU d1623      63.268  35.806  37.787  0.00  0.00    -0.343 OA
ATOM     10  C5  IDU d1623      62.536  34.571  38.110  0.00  0.00     0.224 C 
ATOM     11  C4  IDU d1623      63.282  33.832  39.233  0.00  0.00     0.077 C 
ATOM     12  C3  IDU d1623      63.418  34.752  40.456  0.00  0.00     0.156 C 
ATOM     13  C2  IDU d1623      64.166  36.017  40.009  0.00  0.00     0.228 C 
BRANCH  10  14
ATOM     14  C6  IDU d1623      62.450  33.656  36.919  0.00  0.00     0.170 C 
ATOM     15  O62 IDU d1623      63.489  33.428  36.280  0.00  0.00    -0.648 OA
BRANCH  14  16
ATOM     16  O61 IDU d1623      61.334  33.174  36.636  0.00  0.00    -0.774 OA
ENDBRANCH  14  16
ENDBRANCH  10  14
BRANCH  12  18
ATOM     18  O3  IDU d1623      62.144  35.088  40.931  0.00  0.00    -0.393 OA
ATOM     19  H   IDU d1623      61.768  34.333  41.409  0.00  0.00     0.210 HD
ENDBRANCH  12  18
BRANCH  13  20
ATOM     20  O2  IDU d1623      65.419  35.666  39.471  0.00  0.00    -0.244 OA
BRANCH  20  21
ATOM     21  S   IDU d1623      66.832  36.420  40.131  0.00  0.00     0.252 S 
ATOM     22  O3S IDU d1623      66.554  36.978  41.401  0.00  0.00    -0.572 OA
ATOM     23  O1S IDU d1623      67.276  37.380  39.166  0.00  0.00    -0.572 OA
ATOM     24  O2S IDU d1623      67.887  35.441  40.346  0.00  0.00    -0.572 OA
ENDBRANCH  20  21
ENDBRANCH  13  20
ENDBRANCH   7   8
ENDBRANCH   4   7
BRANCH   3  25
ATOM     25  C6  SGN d5702      65.508  38.130  36.128  0.00  0.00     0.227 C 
BRANCH  25  26
ATOM     26  O6  SGN d5702      66.327  38.727  35.134  0.00  0.00    -0.254 OA
BRANCH  26  27
ATOM     27  S2  SGN d5702      66.405  37.987  33.571  0.00  0.00     0.251 S 
ATOM     28  O4S SGN d5702      67.727  38.040  33.036  0.00  0.00    -0.572 OA
ATOM     29  O5S SGN d5702      65.512  38.687  32.692  0.00  0.00    -0.572 OA
ATOM     30  O6S SGN d5702      66.032  36.619  33.783  0.00  0.00    -0.572 OA
ENDBRANCH  26  27
ENDBRANCH  25  26
ENDBRANCH   3  25
BRANCH   5  31
ATOM     31  O3  SGN d5702      61.691  39.831  38.761  0.00  0.00    -0.391 OA
ATOM     32  H   SGN d5702      61.860  39.071  39.339  0.00  0.00     0.210 HD
ENDBRANCH   5  31
BRANCH   2  33
ATOM     33  N   SGN d5702      61.839  42.173  37.231  0.00  0.00    -0.189 NA
ATOM     34  H   SGN d5702      62.541  42.900  37.372  0.00  0.00     0.143 HD
BRANCH  33  35
ATOM     35  S1  SGN d5702      60.689  42.719  36.006  0.00  0.00     0.183 S 
ATOM     36  O1S SGN d5702      61.350  43.690  35.157  0.00  0.00    -0.582 OA
ATOM     37  O2S SGN d5702      59.607  43.383  36.656  0.00  0.00    -0.582 OA
ATOM     38  O3S SGN d5702      60.277  41.516  35.308  0.00  0.00    -0.582 OA
ENDBRANCH  33  35
ENDBRANCH   2  33
BRANCH   6  39
ATOM     39  O1  SGN d5702      64.584  42.218  36.790  0.00  0.00    -0.369 OA
ATOM     40  H   SGN d5702      65.506  41.939  36.677  0.00  0.00     0.212 HD
ENDBRANCH   6  39
TORSDOF 14
ENDMDL
MODEL 68
REMARK VINA RESULT:      -3.5      3.067      7.825
REMARK  14 active torsions:
REMARK  status: ('A' for Active; 'I' for Inactive)
REMARK    1  A    between atoms: C5_1  and  C6_23 
REMARK    2  A    between atoms: S2_5  and  O6_7 
REMARK    3  A    between atoms: O1_6  and  C1_35 
REMARK    4  A    between atoms: O6_7  and  C6_21 
REMARK    5  A    between atoms: O2_9  and  C2_28 
REMARK    6  A    between atoms: O2_9  and  S_13 
REMARK    7  A    between atoms: C3_10  and  O3_20 
REMARK    8  A    between atoms: C1_11  and  O4_12 
REMARK    9  A    between atoms: O4_12  and  C4_19 
REMARK   10  A    between atoms: C2_15  and  N_29 
REMARK   11  A    between atoms: C5_17  and  C6_21 
REMARK   12  A    between atoms: C6_23  and  O61_33 
REMARK   13  A    between atoms: O3_24  and  C3_26 
REMARK   14  A    between atoms: S1_27  and  N_29 
ROOT
ATOM      1  O5  SGN d5702      66.405  43.231  34.834  0.00  0.00    -0.350 OA
ATOM      2  C2  SGN d5702      64.383  43.098  33.548  0.00  0.00     0.160 C 
ATOM      3  C5  SGN d5702      65.765  42.838  36.024  0.00  0.00     0.181 C 
ATOM      4  C4  SGN d5702      64.555  41.949  35.675  0.00  0.00     0.186 C 
ATOM      5  C3  SGN d5702      63.593  42.790  34.792  0.00  0.00     0.173 C 
ATOM      6  C1  SGN d5702      65.599  43.939  33.889  0.00  0.00     0.278 C 
ENDROOT
BRANCH   4   7
ATOM      7  O4  SGN d5702      63.952  41.568  36.943  0.00  0.00    -0.348 OA
BRANCH   7   8
ATOM      8  C1  IDU d1623      63.423  40.299  37.270  0.00  0.00     0.294 C 
ATOM      9  O5  IDU d1623      64.443  39.257  37.402  0.00  0.00    -0.343 OA
ATOM     10  C5  IDU d1623      63.893  37.909  37.616  0.00  0.00     0.224 C 
ATOM     11  C4  IDU d1623      63.087  37.905  38.925  0.00  0.00     0.077 C 
ATOM     12  C3  IDU d1623      61.980  38.969  38.853  0.00  0.00     0.156 C 
ATOM     13  C2  IDU d1623      62.652  40.327  38.600  0.00  0.00     0.228 C 
BRANCH  10  14
ATOM     14  C6  IDU d1623      64.986  36.882  37.733  0.00  0.00     0.170 C 
ATOM     15  O62 IDU d1623      65.774  36.972  38.687  0.00  0.00    -0.648 OA
BRANCH  14  16
ATOM     16  O61 IDU d1623      65.042  35.992  36.860  0.00  0.00    -0.774 OA
ENDBRANCH  14  16
ENDBRANCH  10  14
BRANCH  12  18
ATOM     18  O3  IDU d1623      61.104  38.663  37.804  0.00  0.00    -0.393 OA
ATOM     19  H   IDU d1623      61.604  38.596  36.976  0.00  0.00     0.210 HD
ENDBRANCH  12  18
BRANCH  13  20
ATOM     20  O2  IDU d1623      63.580  40.599  39.624  0.00  0.00    -0.244 OA
BRANCH  20  21
ATOM     21  S   IDU d1623      63.194  41.840  40.769  0.00  0.00     0.252 S 
ATOM     22  O3S IDU d1623      62.212  41.389  41.682  0.00  0.00    -0.572 OA
ATOM     23  O1S IDU d1623      62.792  42.988  40.013  0.00  0.00    -0.572 OA
ATOM     24  O2S IDU d1623      64.359  42.184  41.570  0.00  0.00    -0.572 OA
ENDBRANCH  20  21
ENDBRANCH  13  20
ENDBRANCH   7   8
ENDBRANCH   4   7
BRANCH   3  25
ATOM     25  C6  SGN d5702      66.779  42.113  36.853  0.00  0.00     0.227 C 
BRANCH  25  26
ATOM     26  O6  SGN d5702      67.719  41.653  35.893  0.00  0.00    -0.254 OA
BRANCH  26  27
ATOM     27  S2  SGN d5702      67.924  39.947  35.684  0.00  0.00     0.251 S 
ATOM     28  O4S SGN d5702      67.671  39.241  36.898  0.00  0.00    -0.572 OA
ATOM     29  O5S SGN d5702      69.275  39.700  35.268  0.00  0.00    -0.572 OA
ATOM     30  O6S SGN d5702      66.951  39.568  34.702  0.00  0.00    -0.572 OA
ENDBRANCH  26  27
ENDBRANCH  25  26
ENDBRANCH   3  25
BRANCH   5  31
ATOM     31  O3  SGN d5702      62.474  42.016  34.434  0.00  0.00    -0.391 OA
ATOM     32  H   SGN d5702      62.760  41.117  34.211  0.00  0.00     0.210 HD
ENDBRANCH   5  31
BRANCH   2  33
ATOM     33  N   SGN d5702      63.588  43.846  32.630  0.00  0.00    -0.189 NA
ATOM     34  H   SGN d5702      63.805  44.837  32.738  0.00  0.00     0.143 HD
BRANCH  33  35
ATOM     35  S1  SGN d5702      63.891  43.374  30.955  0.00  0.00     0.183 S 
ATOM     36  O1S SGN d5702      65.153  43.952  30.537  0.00  0.00    -0.582 OA
ATOM     37  O2S SGN d5702      62.869  43.930  30.130  0.00  0.00    -0.582 OA
ATOM     38  O3S SGN d5702      63.886  41.924  30.962  0.00  0.00    -0.582 OA
ENDBRANCH  33  35
ENDBRANCH   2  33
BRANCH   6  39
ATOM     39  O1  SGN d5702      65.256  45.211  34.386  0.00  0.00    -0.369 OA
ATOM     40  H   SGN d5702      65.136  45.826  33.646  0.00  0.00     0.212 HD
ENDBRANCH   6  39
TORSDOF 14
ENDMDL
MODEL 69
REMARK VINA RESULT:      -3.5      3.121      7.205
REMARK  14 active torsions:
REMARK  status: ('A' for Active; 'I' for Inactive)
REMARK    1  A    between atoms: C5_1  and  C6_23 
REMARK    2  A    between atoms: S2_5  and  O6_7 
REMARK    3  A    between atoms: O1_6  and  C1_35 
REMARK    4  A    between atoms: O6_7  and  C6_21 
REMARK    5  A    between atoms: O2_9  and  C2_28 
REMARK    6  A    between atoms: O2_9  and  S_13 
REMARK    7  A    between atoms: C3_10  and  O3_20 
REMARK    8  A    between atoms: C1_11  and  O4_12 
REMARK    9  A    between atoms: O4_12  and  C4_19 
REMARK   10  A    between atoms: C2_15  and  N_29 
REMARK   11  A    between atoms: C5_17  and  C6_21 
REMARK   12  A    between atoms: C6_23  and  O61_33 
REMARK   13  A    between atoms: O3_24  and  C3_26 
REMARK   14  A    between atoms: S1_27  and  N_29 
ROOT
ATOM      1  O5  SGN d5702      67.215  44.194  35.383  0.00  0.00    -0.350 OA
ATOM      2  C2  SGN d5702      66.684  43.238  33.246  0.00  0.00     0.160 C 
ATOM      3  C5  SGN d5702      65.880  44.148  35.822  0.00  0.00     0.181 C 
ATOM      4  C4  SGN d5702      65.155  42.988  35.110  0.00  0.00     0.186 C 
ATOM      5  C3  SGN d5702      65.217  43.262  33.583  0.00  0.00     0.173 C 
ATOM      6  C1  SGN d5702      67.411  44.353  33.975  0.00  0.00     0.278 C 
ENDROOT
BRANCH   4   7
ATOM      7  O4  SGN d5702      63.793  42.987  35.618  0.00  0.00    -0.348 OA
BRANCH   7   8
ATOM      8  C1  IDU d1623      62.945  41.863  35.741  0.00  0.00     0.294 C 
ATOM      9  O5  IDU d1623      63.329  40.958  36.826  0.00  0.00    -0.343 OA
ATOM     10  C5  IDU d1623      62.532  39.722  36.881  0.00  0.00     0.224 C 
ATOM     11  C4  IDU d1623      61.059  40.093  37.116  0.00  0.00     0.077 C 
ATOM     12  C3  IDU d1623      60.578  41.034  36.000  0.00  0.00     0.156 C 
ATOM     13  C2  IDU d1623      61.488  42.272  36.008  0.00  0.00     0.228 C 
BRANCH  10  14
ATOM     14  C6  IDU d1623      62.979  38.830  38.007  0.00  0.00     0.170 C 
ATOM     15  O62 IDU d1623      64.138  38.390  37.981  0.00  0.00    -0.648 OA
BRANCH  14  16
ATOM     16  O61 IDU d1623      62.154  38.577  38.909  0.00  0.00    -0.774 OA
ENDBRANCH  14  16
ENDBRANCH  10  14
BRANCH  12  18
ATOM     18  O3  IDU d1623      60.668  40.379  34.765  0.00  0.00    -0.393 OA
ATOM     19  H   IDU d1623      60.600  41.029  34.049  0.00  0.00     0.210 HD
ENDBRANCH  12  18
BRANCH  13  20
ATOM     20  O2  IDU d1623      61.444  42.888  37.273  0.00  0.00    -0.244 OA
BRANCH  20  21
ATOM     21  S   IDU d1623      60.948  44.546  37.359  0.00  0.00     0.252 S 
ATOM     22  O3S IDU d1623      60.954  45.001  38.698  0.00  0.00    -0.572 OA
ATOM     23  O1S IDU d1623      59.663  44.625  36.731  0.00  0.00    -0.572 OA
ATOM     24  O2S IDU d1623      61.880  45.402  36.641  0.00  0.00    -0.572 OA
ENDBRANCH  20  21
ENDBRANCH  13  20
ENDBRANCH   7   8
ENDBRANCH   4   7
BRANCH   3  25
ATOM     25  C6  SGN d5702      65.909  43.969  37.308  0.00  0.00     0.227 C 
BRANCH  25  26
ATOM     26  O6  SGN d5702      67.211  43.458  37.551  0.00  0.00    -0.254 OA
BRANCH  26  27
ATOM     27  S2  SGN d5702      67.373  41.812  38.060  0.00  0.00     0.251 S 
ATOM     28  O4S SGN d5702      66.106  41.241  38.387  0.00  0.00    -0.572 OA
ATOM     29  O5S SGN d5702      68.220  41.776  39.219  0.00  0.00    -0.572 OA
ATOM     30  O6S SGN d5702      67.929  41.121  36.933  0.00  0.00    -0.572 OA
ENDBRANCH  26  27
ENDBRANCH  25  26
ENDBRANCH   3  25
BRANCH   5  31
ATOM     31  O3  SGN d5702      64.578  42.221  32.885  0.00  0.00    -0.391 OA
ATOM     32  H   SGN d5702      63.623  42.260  33.048  0.00  0.00     0.210 HD
ENDBRANCH   5  31
BRANCH   2  33
ATOM     33  N   SGN d5702      66.873  43.445  31.848  0.00  0.00    -0.189 NA
ATOM     34  H   SGN d5702      67.392  44.313  31.710  0.00  0.00     0.143 HD
BRANCH  33  35
ATOM     35  S1  SGN d5702      67.770  42.120  31.099  0.00  0.00     0.183 S 
ATOM     36  O1S SGN d5702      67.082  41.731  29.883  0.00  0.00    -0.582 OA
ATOM     37  O2S SGN d5702      67.753  40.999  31.980  0.00  0.00    -0.582 OA
ATOM     38  O3S SGN d5702      69.104  42.643  30.874  0.00  0.00    -0.582 OA
ENDBRANCH  33  35
ENDBRANCH   2  33
BRANCH   6  39
ATOM     39  O1  SGN d5702      66.997  45.633  33.559  0.00  0.00    -0.369 OA
ATOM     40  H   SGN d5702      66.952  46.223  34.328  0.00  0.00     0.212 HD
ENDBRANCH   6  39
TORSDOF 14
ENDMDL
MODEL 70
REMARK VINA RESULT:      -3.5      4.773      7.931
REMARK  14 active torsions:
REMARK  status: ('A' for Active; 'I' for Inactive)
REMARK    1  A    between atoms: C5_1  and  C6_23 
REMARK    2  A    between atoms: S2_5  and  O6_7 
REMARK    3  A    between atoms: O1_6  and  C1_35 
REMARK    4  A    between atoms: O6_7  and  C6_21 
REMARK    5  A    between atoms: O2_9  and  C2_28 
REMARK    6  A    between atoms: O2_9  and  S_13 
REMARK    7  A    between atoms: C3_10  and  O3_20 
REMARK    8  A    between atoms: C1_11  and  O4_12 
REMARK    9  A    between atoms: O4_12  and  C4_19 
REMARK   10  A    between atoms: C2_15  and  N_29 
REMARK   11  A    between atoms: C5_17  and  C6_21 
REMARK   12  A    between atoms: C6_23  and  O61_33 
REMARK   13  A    between atoms: O3_24  and  C3_26 
REMARK   14  A    between atoms: S1_27  and  N_29 
ROOT
ATOM      1  O5  SGN d5702      63.091  46.331  39.631  0.00  0.00    -0.350 OA
ATOM      2  C2  SGN d5702      61.632  45.678  41.422  0.00  0.00     0.160 C 
ATOM      3  C5  SGN d5702      63.606  45.031  39.474  0.00  0.00     0.181 C 
ATOM      4  C4  SGN d5702      62.539  44.009  39.916  0.00  0.00     0.186 C 
ATOM      5  C3  SGN d5702      62.212  44.288  41.408  0.00  0.00     0.173 C 
ATOM      6  C1  SGN d5702      62.664  46.685  40.950  0.00  0.00     0.278 C 
ENDROOT
BRANCH   4   7
ATOM      7  O4  SGN d5702      63.127  42.695  39.715  0.00  0.00    -0.348 OA
BRANCH   7   8
ATOM      8  C1  IDU d1623      62.522  41.597  39.063  0.00  0.00     0.294 C 
ATOM      9  O5  IDU d1623      62.319  41.809  37.629  0.00  0.00    -0.343 OA
ATOM     10  C5  IDU d1623      61.574  40.726  36.967  0.00  0.00     0.224 C 
ATOM     11  C4  IDU d1623      62.367  39.417  37.112  0.00  0.00     0.077 C 
ATOM     12  C3  IDU d1623      62.605  39.120  38.601  0.00  0.00     0.156 C 
ATOM     13  C2  IDU d1623      63.359  40.316  39.203  0.00  0.00     0.228 C 
BRANCH  10  14
ATOM     14  C6  IDU d1623      61.388  41.003  35.500  0.00  0.00     0.170 C 
ATOM     15  O62 IDU d1623      62.128  41.843  34.965  0.00  0.00    -0.648 OA
BRANCH  14  16
ATOM     16  O61 IDU d1623      60.495  40.372  34.898  0.00  0.00    -0.774 OA
ENDBRANCH  14  16
ENDBRANCH  10  14
BRANCH  12  18
ATOM     18  O3  IDU d1623      61.374  38.953  39.247  0.00  0.00    -0.393 OA
ATOM     19  H   IDU d1623      61.519  38.559  40.122  0.00  0.00     0.210 HD
ENDBRANCH  12  18
BRANCH  13  20
ATOM     20  O2  IDU d1623      64.566  40.519  38.505  0.00  0.00    -0.244 OA
BRANCH  20  21
ATOM     21  S   IDU d1623      66.052  40.176  39.326  0.00  0.00     0.252 S 
ATOM     22  O3S IDU d1623      66.012  38.891  39.916  0.00  0.00    -0.572 OA
ATOM     23  O1S IDU d1623      66.256  41.234  40.269  0.00  0.00    -0.572 OA
ATOM     24  O2S IDU d1623      67.166  40.153  38.390  0.00  0.00    -0.572 OA
ENDBRANCH  20  21
ENDBRANCH  13  20
ENDBRANCH   7   8
ENDBRANCH   4   7
BRANCH   3  25
ATOM     25  C6  SGN d5702      63.976  44.873  38.032  0.00  0.00     0.227 C 
BRANCH  25  26
ATOM     26  O6  SGN d5702      65.392  44.777  38.065  0.00  0.00    -0.254 OA
BRANCH  26  27
ATOM     27  S2  SGN d5702      66.328  46.110  37.478  0.00  0.00     0.251 S 
ATOM     28  O4S SGN d5702      65.810  46.604  36.243  0.00  0.00    -0.572 OA
ATOM     29  O5S SGN d5702      67.678  45.664  37.278  0.00  0.00    -0.572 OA
ATOM     30  O6S SGN d5702      66.211  47.125  38.483  0.00  0.00    -0.572 OA
ENDBRANCH  26  27
ENDBRANCH  25  26
ENDBRANCH   3  25
BRANCH   5  31
ATOM     31  O3  SGN d5702      61.229  43.387  41.858  0.00  0.00    -0.391 OA
ATOM     32  H   SGN d5702      60.371  43.627  41.475  0.00  0.00     0.210 HD
ENDBRANCH   5  31
BRANCH   2  33
ATOM     33  N   SGN d5702      61.254  46.043  42.748  0.00  0.00    -0.189 NA
ATOM     34  H   SGN d5702      61.718  46.917  42.995  0.00  0.00     0.143 HD
BRANCH  33  35
ATOM     35  S1  SGN d5702      59.508  46.260  42.901  0.00  0.00     0.183 S 
ATOM     36  O1S SGN d5702      59.244  47.023  44.105  0.00  0.00    -0.582 OA
ATOM     37  O2S SGN d5702      58.898  44.981  43.060  0.00  0.00    -0.582 OA
ATOM     38  O3S SGN d5702      59.101  46.933  41.682  0.00  0.00    -0.582 OA
ENDBRANCH  33  35
ENDBRANCH   2  33
BRANCH   6  39
ATOM     39  O1  SGN d5702      63.769  46.778  41.818  0.00  0.00    -0.369 OA
ATOM     40  H   SGN d5702      63.548  47.364  42.559  0.00  0.00     0.212 HD
ENDBRANCH   6  39
TORSDOF 14
ENDMDL
MODEL 71
REMARK VINA RESULT:      -3.5      3.419      7.842
REMARK  14 active torsions:
REMARK  status: ('A' for Active; 'I' for Inactive)
REMARK    1  A    between atoms: C5_1  and  C6_23 
REMARK    2  A    between atoms: S2_5  and  O6_7 
REMARK    3  A    between atoms: O1_6  and  C1_35 
REMARK    4  A    between atoms: O6_7  and  C6_21 
REMARK    5  A    between atoms: O2_9  and  C2_28 
REMARK    6  A    between atoms: O2_9  and  S_13 
REMARK    7  A    between atoms: C3_10  and  O3_20 
REMARK    8  A    between atoms: C1_11  and  O4_12 
REMARK    9  A    between atoms: O4_12  and  C4_19 
REMARK   10  A    between atoms: C2_15  and  N_29 
REMARK   11  A    between atoms: C5_17  and  C6_21 
REMARK   12  A    between atoms: C6_23  and  O61_33 
REMARK   13  A    between atoms: O3_24  and  C3_26 
REMARK   14  A    between atoms: S1_27  and  N_29 
ROOT
ATOM      1  O5  SGN d5702      61.162  42.964  36.521  0.00  0.00    -0.350 OA
ATOM      2  C2  SGN d5702      61.810  44.187  38.482  0.00  0.00     0.160 C 
ATOM      3  C5  SGN d5702      62.170  41.998  36.696  0.00  0.00     0.181 C 
ATOM      4  C4  SGN d5702      62.500  41.881  38.198  0.00  0.00     0.186 C 
ATOM      5  C3  SGN d5702      62.989  43.273  38.681  0.00  0.00     0.173 C 
ATOM      6  C1  SGN d5702      61.453  44.276  37.009  0.00  0.00     0.278 C 
ENDROOT
BRANCH   4   7
ATOM      7  O4  SGN d5702      63.532  40.862  38.309  0.00  0.00    -0.348 OA
BRANCH   7   8
ATOM      8  C1  IDU d1623      63.813  40.076  39.448  0.00  0.00     0.294 C 
ATOM      9  O5  IDU d1623      62.697  39.222  39.859  0.00  0.00    -0.343 OA
ATOM     10  C5  IDU d1623      62.935  38.497  41.118  0.00  0.00     0.224 C 
ATOM     11  C4  IDU d1623      64.152  37.576  40.937  0.00  0.00     0.077 C 
ATOM     12  C3  IDU d1623      65.373  38.410  40.519  0.00  0.00     0.156 C 
ATOM     13  C2  IDU d1623      65.015  39.146  39.219  0.00  0.00     0.228 C 
BRANCH  10  14
ATOM     14  C6  IDU d1623      61.752  37.646  41.493  0.00  0.00     0.170 C 
ATOM     15  O62 IDU d1623      61.750  36.457  41.138  0.00  0.00    -0.648 OA
BRANCH  14  16
ATOM     16  O61 IDU d1623      60.832  38.184  42.142  0.00  0.00    -0.774 OA
ENDBRANCH  14  16
ENDBRANCH  10  14
BRANCH  12  18
ATOM     18  O3  IDU d1623      65.675  39.334  41.527  0.00  0.00    -0.393 OA
ATOM     19  H   IDU d1623      66.638  39.421  41.607  0.00  0.00     0.210 HD
ENDBRANCH  12  18
BRANCH  13  20
ATOM     20  O2  IDU d1623      64.649  38.214  38.229  0.00  0.00    -0.244 OA
BRANCH  20  21
ATOM     21  S   IDU d1623      65.910  37.422  37.345  0.00  0.00     0.252 S 
ATOM     22  O3S IDU d1623      66.192  36.154  37.904  0.00  0.00    -0.572 OA
ATOM     23  O1S IDU d1623      67.033  38.311  37.342  0.00  0.00    -0.572 OA
ATOM     24  O2S IDU d1623      65.500  37.172  35.971  0.00  0.00    -0.572 OA
ENDBRANCH  20  21
ENDBRANCH  13  20
ENDBRANCH   7   8
ENDBRANCH   4   7
BRANCH   3  25
ATOM     25  C6  SGN d5702      61.655  40.713  36.129  0.00  0.00     0.227 C 
BRANCH  25  26
ATOM     26  O6  SGN d5702      61.980  40.808  34.750  0.00  0.00    -0.254 OA
BRANCH  26  27
ATOM     27  S2  SGN d5702      63.625  41.114  34.305  0.00  0.00     0.251 S 
ATOM     28  O4S SGN d5702      63.883  40.710  32.961  0.00  0.00    -0.572 OA
ATOM     29  O5S SGN d5702      64.479  40.375  35.191  0.00  0.00    -0.572 OA
ATOM     30  O6S SGN d5702      63.788  42.534  34.416  0.00  0.00    -0.572 OA
ENDBRANCH  26  27
ENDBRANCH  25  26
ENDBRANCH   3  25
BRANCH   5  31
ATOM     31  O3  SGN d5702      63.292  43.223  40.054  0.00  0.00    -0.391 OA
ATOM     32  H   SGN d5702      63.048  42.353  40.408  0.00  0.00     0.210 HD
ENDBRANCH   5  31
BRANCH   2  33
ATOM     33  N   SGN d5702      62.124  45.505  38.927  0.00  0.00    -0.189 NA
ATOM     34  H   SGN d5702      61.959  46.160  38.161  0.00  0.00     0.143 HD
BRANCH  33  35
ATOM     35  S1  SGN d5702      61.141  45.988  40.312  0.00  0.00     0.183 S 
ATOM     36  O1S SGN d5702      61.838  47.039  41.026  0.00  0.00    -0.582 OA
ATOM     37  O2S SGN d5702      61.018  44.876  41.198  0.00  0.00    -0.582 OA
ATOM     38  O3S SGN d5702      59.871  46.404  39.750  0.00  0.00    -0.582 OA
ENDBRANCH  33  35
ENDBRANCH   2  33
BRANCH   6  39
ATOM     39  O1  SGN d5702      62.469  44.875  36.241  0.00  0.00    -0.369 OA
ATOM     40  H   SGN d5702      62.079  45.537  35.649  0.00  0.00     0.212 HD
ENDBRANCH   6  39
TORSDOF 14
ENDMDL
MODEL 72
REMARK VINA RESULT:      -3.5      2.883      7.706
REMARK  14 active torsions:
REMARK  status: ('A' for Active; 'I' for Inactive)
REMARK    1  A    between atoms: C5_1  and  C6_23 
REMARK    2  A    between atoms: S2_5  and  O6_7 
REMARK    3  A    between atoms: O1_6  and  C1_35 
REMARK    4  A    between atoms: O6_7  and  C6_21 
REMARK    5  A    between atoms: O2_9  and  C2_28 
REMARK    6  A    between atoms: O2_9  and  S_13 
REMARK    7  A    between atoms: C3_10  and  O3_20 
REMARK    8  A    between atoms: C1_11  and  O4_12 
REMARK    9  A    between atoms: O4_12  and  C4_19 
REMARK   10  A    between atoms: C2_15  and  N_29 
REMARK   11  A    between atoms: C5_17  and  C6_21 
REMARK   12  A    between atoms: C6_23  and  O61_33 
REMARK   13  A    between atoms: O3_24  and  C3_26 
REMARK   14  A    between atoms: S1_27  and  N_29 
ROOT
ATOM      1  O5  SGN d5702      62.132  41.249  38.135  0.00  0.00    -0.350 OA
ATOM      2  C2  SGN d5702      62.871  41.930  35.955  0.00  0.00     0.160 C 
ATOM      3  C5  SGN d5702      62.683  39.961  38.004  0.00  0.00     0.181 C 
ATOM      4  C4  SGN d5702      63.893  40.025  37.051  0.00  0.00     0.186 C 
ATOM      5  C3  SGN d5702      63.384  40.541  35.679  0.00  0.00     0.173 C 
ATOM      6  C1  SGN d5702      61.704  41.878  36.924  0.00  0.00     0.278 C 
ENDROOT
BRANCH   4   7
ATOM      7  O4  SGN d5702      64.421  38.672  36.974  0.00  0.00    -0.348 OA
BRANCH   7   8
ATOM      8  C1  IDU d1623      65.783  38.308  36.890  0.00  0.00     0.294 C 
ATOM      9  O5  IDU d1623      66.504  38.449  38.157  0.00  0.00    -0.343 OA
ATOM     10  C5  IDU d1623      67.950  38.195  38.051  0.00  0.00     0.224 C 
ATOM     11  C4  IDU d1623      68.166  36.748  37.578  0.00  0.00     0.077 C 
ATOM     12  C3  IDU d1623      67.448  36.530  36.238  0.00  0.00     0.156 C 
ATOM     13  C2  IDU d1623      65.959  36.846  36.447  0.00  0.00     0.228 C 
BRANCH  10  14
ATOM     14  C6  IDU d1623      68.637  38.365  39.379  0.00  0.00     0.170 C 
ATOM     15  O62 IDU d1623      69.458  39.286  39.500  0.00  0.00    -0.648 OA
BRANCH  14  16
ATOM     16  O61 IDU d1623      68.343  37.565  40.290  0.00  0.00    -0.774 OA
ENDBRANCH  14  16
ENDBRANCH  10  14
BRANCH  12  18
ATOM     18  O3  IDU d1623      67.990  37.386  35.271  0.00  0.00    -0.393 OA
ATOM     19  H   IDU d1623      68.954  37.420  35.375  0.00  0.00     0.210 HD
ENDBRANCH  12  18
BRANCH  13  20
ATOM     20  O2  IDU d1623      65.436  36.027  37.466  0.00  0.00    -0.244 OA
BRANCH  20  21
ATOM     21  S   IDU d1623      64.953  34.416  37.052  0.00  0.00     0.252 S 
ATOM     22  O3S IDU d1623      64.071  34.427  35.946  0.00  0.00    -0.572 OA
ATOM     23  O1S IDU d1623      64.385  33.840  38.234  0.00  0.00    -0.572 OA
ATOM     24  O2S IDU d1623      66.101  33.622  36.642  0.00  0.00    -0.572 OA
ENDBRANCH  20  21
ENDBRANCH  13  20
ENDBRANCH   7   8
ENDBRANCH   4   7
BRANCH   3  25
ATOM     25  C6  SGN d5702      63.067  39.503  39.376  0.00  0.00     0.227 C 
BRANCH  25  26
ATOM     26  O6  SGN d5702      62.081  38.530  39.686  0.00  0.00    -0.254 OA
BRANCH  26  27
ATOM     27  S2  SGN d5702      62.561  36.871  39.805  0.00  0.00     0.251 S 
ATOM     28  O4S SGN d5702      61.858  36.200  40.851  0.00  0.00    -0.572 OA
ATOM     29  O5S SGN d5702      63.969  36.824  40.078  0.00  0.00    -0.572 OA
ATOM     30  O6S SGN d5702      62.210  36.285  38.545  0.00  0.00    -0.572 OA
ENDBRANCH  26  27
ENDBRANCH  25  26
ENDBRANCH   3  25
BRANCH   5  31
ATOM     31  O3  SGN d5702      64.458  40.630  34.774  0.00  0.00    -0.391 OA
ATOM     32  H   SGN d5702      64.129  40.510  33.869  0.00  0.00     0.210 HD
ENDBRANCH   5  31
BRANCH   2  33
ATOM     33  N   SGN d5702      62.402  42.532  34.751  0.00  0.00    -0.189 NA
ATOM     34  H   SGN d5702      61.422  42.790  34.871  0.00  0.00     0.143 HD
BRANCH  33  35
ATOM     35  S1  SGN d5702      63.325  43.978  34.332  0.00  0.00     0.183 S 
ATOM     36  O1S SGN d5702      62.788  44.525  33.101  0.00  0.00    -0.582 OA
ATOM     37  O2S SGN d5702      64.678  43.603  34.081  0.00  0.00    -0.582 OA
ATOM     38  O3S SGN d5702      63.186  44.862  35.474  0.00  0.00    -0.582 OA
ENDBRANCH  33  35
ENDBRANCH   2  33
BRANCH   6  39
ATOM     39  O1  SGN d5702      60.585  41.212  36.390  0.00  0.00    -0.369 OA
ATOM     40  H   SGN d5702      60.480  40.354  36.830  0.00  0.00     0.212 HD
ENDBRANCH   6  39
TORSDOF 14
ENDMDL
MODEL 73
REMARK VINA RESULT:      -3.5      3.437      7.441
REMARK  14 active torsions:
REMARK  status: ('A' for Active; 'I' for Inactive)
REMARK    1  A    between atoms: C5_1  and  C6_23 
REMARK    2  A    between atoms: S2_5  and  O6_7 
REMARK    3  A    between atoms: O1_6  and  C1_35 
REMARK    4  A    between atoms: O6_7  and  C6_21 
REMARK    5  A    between atoms: O2_9  and  C2_28 
REMARK    6  A    between atoms: O2_9  and  S_13 
REMARK    7  A    between atoms: C3_10  and  O3_20 
REMARK    8  A    between atoms: C1_11  and  O4_12 
REMARK    9  A    between atoms: O4_12  and  C4_19 
REMARK   10  A    between atoms: C2_15  and  N_29 
REMARK   11  A    between atoms: C5_17  and  C6_21 
REMARK   12  A    between atoms: C6_23  and  O61_33 
REMARK   13  A    between atoms: O3_24  and  C3_26 
REMARK   14  A    between atoms: S1_27  and  N_29 
ROOT
ATOM      1  O5  SGN d5702      65.593  44.521  32.905  0.00  0.00    -0.350 OA
ATOM      2  C2  SGN d5702      64.576  42.445  32.257  0.00  0.00     0.160 C 
ATOM      3  C5  SGN d5702      64.834  44.613  34.086  0.00  0.00     0.181 C 
ATOM      4  C4  SGN d5702      64.465  43.193  34.561  0.00  0.00     0.186 C 
ATOM      5  C3  SGN d5702      63.638  42.521  33.432  0.00  0.00     0.173 C 
ATOM      6  C1  SGN d5702      64.976  43.839  31.810  0.00  0.00     0.278 C 
ENDROOT
BRANCH   4   7
ATOM      7  O4  SGN d5702      63.700  43.360  35.786  0.00  0.00    -0.348 OA
BRANCH   7   8
ATOM      8  C1  IDU d1623      63.809  42.575  36.955  0.00  0.00     0.294 C 
ATOM      9  O5  IDU d1623      65.059  42.790  37.688  0.00  0.00    -0.343 OA
ATOM     10  C5  IDU d1623      65.239  41.885  38.835  0.00  0.00     0.224 C 
ATOM     11  C4  IDU d1623      64.094  42.119  39.835  0.00  0.00     0.077 C 
ATOM     12  C3  IDU d1623      62.744  41.894  39.136  0.00  0.00     0.156 C 
ATOM     13  C2  IDU d1623      62.667  42.859  37.944  0.00  0.00     0.228 C 
BRANCH  10  14
ATOM     14  C6  IDU d1623      66.541  42.146  39.541  0.00  0.00     0.170 C 
ATOM     15  O62 IDU d1623      67.012  41.246  40.253  0.00  0.00    -0.648 OA
BRANCH  14  16
ATOM     16  O61 IDU d1623      67.080  43.259  39.373  0.00  0.00    -0.774 OA
ENDBRANCH  14  16
ENDBRANCH  10  14
BRANCH  12  18
ATOM     18  O3  IDU d1623      62.664  40.569  38.689  0.00  0.00    -0.393 OA
ATOM     19  H   IDU d1623      61.742  40.271  38.727  0.00  0.00     0.210 HD
ENDBRANCH  12  18
BRANCH  13  20
ATOM     20  O2  IDU d1623      62.815  44.185  38.393  0.00  0.00    -0.244 OA
BRANCH  20  21
ATOM     21  S   IDU d1623      61.737  45.387  37.763  0.00  0.00     0.252 S 
ATOM     22  O3S IDU d1623      60.682  44.782  37.041  0.00  0.00    -0.572 OA
ATOM     23  O1S IDU d1623      62.532  46.282  36.977  0.00  0.00    -0.572 OA
ATOM     24  O2S IDU d1623      61.108  46.134  38.842  0.00  0.00    -0.572 OA
ENDBRANCH  20  21
ENDBRANCH  13  20
ENDBRANCH   7   8
ENDBRANCH   4   7
BRANCH   3  25
ATOM     25  C6  SGN d5702      65.667  45.347  35.091  0.00  0.00     0.227 C 
BRANCH  25  26
ATOM     26  O6  SGN d5702      66.990  45.182  34.604  0.00  0.00    -0.254 OA
BRANCH  26  27
ATOM     27  S2  SGN d5702      68.151  44.384  35.610  0.00  0.00     0.251 S 
ATOM     28  O4S SGN d5702      69.442  44.367  35.002  0.00  0.00    -0.572 OA
ATOM     29  O5S SGN d5702      67.713  43.034  35.826  0.00  0.00    -0.572 OA
ATOM     30  O6S SGN d5702      68.202  45.160  36.815  0.00  0.00    -0.572 OA
ENDBRANCH  26  27
ENDBRANCH  25  26
ENDBRANCH   3  25
BRANCH   5  31
ATOM     31  O3  SGN d5702      63.286  41.213  33.812  0.00  0.00    -0.391 OA
ATOM     32  H   SGN d5702      62.366  41.039  33.560  0.00  0.00     0.210 HD
ENDBRANCH   5  31
BRANCH   2  33
ATOM     33  N   SGN d5702      63.937  41.808  31.154  0.00  0.00    -0.189 NA
ATOM     34  H   SGN d5702      64.070  42.380  30.320  0.00  0.00     0.143 HD
BRANCH  33  35
ATOM     35  S1  SGN d5702      64.593  40.196  30.851  0.00  0.00     0.183 S 
ATOM     36  O1S SGN d5702      65.145  39.685  32.089  0.00  0.00    -0.582 OA
ATOM     37  O2S SGN d5702      65.665  40.305  29.916  0.00  0.00    -0.582 OA
ATOM     38  O3S SGN d5702      63.478  39.421  30.343  0.00  0.00    -0.582 OA
ENDBRANCH  33  35
ENDBRANCH   2  33
BRANCH   6  39
ATOM     39  O1  SGN d5702      63.887  44.583  31.316  0.00  0.00    -0.369 OA
ATOM     40  H   SGN d5702      64.217  45.358  30.835  0.00  0.00     0.212 HD
ENDBRANCH   6  39
TORSDOF 14
ENDMDL
MODEL 74
REMARK VINA RESULT:      -3.4      3.061      5.230
REMARK  14 active torsions:
REMARK  status: ('A' for Active; 'I' for Inactive)
REMARK    1  A    between atoms: C5_1  and  C6_23 
REMARK    2  A    between atoms: S2_5  and  O6_7 
REMARK    3  A    between atoms: O1_6  and  C1_35 
REMARK    4  A    between atoms: O6_7  and  C6_21 
REMARK    5  A    between atoms: O2_9  and  C2_28 
REMARK    6  A    between atoms: O2_9  and  S_13 
REMARK    7  A    between atoms: C3_10  and  O3_20 
REMARK    8  A    between atoms: C1_11  and  O4_12 
REMARK    9  A    between atoms: O4_12  and  C4_19 
REMARK   10  A    between atoms: C2_15  and  N_29 
REMARK   11  A    between atoms: C5_17  and  C6_21 
REMARK   12  A    between atoms: C6_23  and  O61_33 
REMARK   13  A    between atoms: O3_24  and  C3_26 
REMARK   14  A    between atoms: S1_27  and  N_29 
ROOT
ATOM      1  O5  SGN d5702      64.297  39.384  36.867  0.00  0.00    -0.350 OA
ATOM      2  C2  SGN d5702      63.293  40.574  38.695  0.00  0.00     0.160 C 
ATOM      3  C5  SGN d5702      64.354  40.530  36.052  0.00  0.00     0.181 C 
ATOM      4  C4  SGN d5702      64.462  41.781  36.947  0.00  0.00     0.186 C 
ATOM      5  C3  SGN d5702      63.202  41.820  37.854  0.00  0.00     0.173 C 
ATOM      6  C1  SGN d5702      63.228  39.338  37.816  0.00  0.00     0.278 C 
ENDROOT
BRANCH   4   7
ATOM      7  O4  SGN d5702      64.532  42.920  36.047  0.00  0.00    -0.348 OA
BRANCH   7   8
ATOM      8  C1  IDU d1623      65.387  44.038  36.175  0.00  0.00     0.294 C 
ATOM      9  O5  IDU d1623      66.792  43.734  35.898  0.00  0.00    -0.343 OA
ATOM     10  C5  IDU d1623      67.706  44.858  36.153  0.00  0.00     0.224 C 
ATOM     11  C4  IDU d1623      67.319  46.030  35.236  0.00  0.00     0.077 C 
ATOM     12  C3  IDU d1623      65.852  46.418  35.485  0.00  0.00     0.156 C 
ATOM     13  C2  IDU d1623      64.988  45.175  35.221  0.00  0.00     0.228 C 
BRANCH  10  14
ATOM     14  C6  IDU d1623      69.133  44.484  35.860  0.00  0.00     0.170 C 
ATOM     15  O62 IDU d1623      69.377  43.310  35.538  0.00  0.00    -0.648 OA
BRANCH  14  16
ATOM     16  O61 IDU d1623      70.000  45.376  35.959  0.00  0.00    -0.774 OA
ENDBRANCH  14  16
ENDBRANCH  10  14
BRANCH  12  18
ATOM     18  O3  IDU d1623      65.699  46.837  36.813  0.00  0.00    -0.393 OA
ATOM     19  H   IDU d1623      65.580  47.800  36.836  0.00  0.00     0.210 HD
ENDBRANCH  12  18
BRANCH  13  20
ATOM     20  O2  IDU d1623      65.198  44.719  33.906  0.00  0.00    -0.244 OA
BRANCH  20  21
ATOM     21  S   IDU d1623      64.033  45.147  32.697  0.00  0.00     0.252 S 
ATOM     22  O3S IDU d1623      62.728  44.792  33.113  0.00  0.00    -0.572 OA
ATOM     23  O1S IDU d1623      64.444  44.507  31.484  0.00  0.00    -0.572 OA
ATOM     24  O2S IDU d1623      64.009  46.587  32.489  0.00  0.00    -0.572 OA
ENDBRANCH  20  21
ENDBRANCH  13  20
ENDBRANCH   7   8
ENDBRANCH   4   7
BRANCH   3  25
ATOM     25  C6  SGN d5702      65.540  40.374  35.153  0.00  0.00     0.227 C 
BRANCH  25  26
ATOM     26  O6  SGN d5702      64.994  39.769  33.990  0.00  0.00    -0.254 OA
BRANCH  26  27
ATOM     27  S2  SGN d5702      64.579  40.780  32.648  0.00  0.00     0.251 S 
ATOM     28  O4S SGN d5702      65.696  41.555  32.215  0.00  0.00    -0.572 OA
ATOM     29  O5S SGN d5702      63.521  41.662  33.053  0.00  0.00    -0.572 OA
ATOM     30  O6S SGN d5702      64.193  39.878  31.602  0.00  0.00    -0.572 OA
ENDBRANCH  26  27
ENDBRANCH  25  26
ENDBRANCH   3  25
BRANCH   5  31
ATOM     31  O3  SGN d5702      63.259  42.940  38.703  0.00  0.00    -0.391 OA
ATOM     32  H   SGN d5702      64.168  43.278  38.732  0.00  0.00     0.210 HD
ENDBRANCH   5  31
BRANCH   2  33
ATOM     33  N   SGN d5702      62.197  40.510  39.605  0.00  0.00    -0.189 NA
ATOM     34  H   SGN d5702      61.758  39.592  39.529  0.00  0.00     0.143 HD
BRANCH  33  35
ATOM     35  S1  SGN d5702      62.712  40.761  41.276  0.00  0.00     0.183 S 
ATOM     36  O1S SGN d5702      62.639  42.178  41.572  0.00  0.00    -0.582 OA
ATOM     37  O2S SGN d5702      64.077  40.365  41.401  0.00  0.00    -0.582 OA
ATOM     38  O3S SGN d5702      61.814  39.949  42.076  0.00  0.00    -0.582 OA
ENDBRANCH  33  35
ENDBRANCH   2  33
BRANCH   6  39
ATOM     39  O1  SGN d5702      61.990  39.204  37.160  0.00  0.00    -0.369 OA
ATOM     40  H   SGN d5702      61.810  38.265  36.997  0.00  0.00     0.212 HD
ENDBRANCH   6  39
TORSDOF 14
ENDMDL
MODEL 75
REMARK VINA RESULT:      -3.4      3.404      6.117
REMARK  14 active torsions:
REMARK  status: ('A' for Active; 'I' for Inactive)
REMARK    1  A    between atoms: C5_1  and  C6_23 
REMARK    2  A    between atoms: S2_5  and  O6_7 
REMARK    3  A    between atoms: O1_6  and  C1_35 
REMARK    4  A    between atoms: O6_7  and  C6_21 
REMARK    5  A    between atoms: O2_9  and  C2_28 
REMARK    6  A    between atoms: O2_9  and  S_13 
REMARK    7  A    between atoms: C3_10  and  O3_20 
REMARK    8  A    between atoms: C1_11  and  O4_12 
REMARK    9  A    between atoms: O4_12  and  C4_19 
REMARK   10  A    between atoms: C2_15  and  N_29 
REMARK   11  A    between atoms: C5_17  and  C6_21 
REMARK   12  A    between atoms: C6_23  and  O61_33 
REMARK   13  A    between atoms: O3_24  and  C3_26 
REMARK   14  A    between atoms: S1_27  and  N_29 
ROOT
ATOM      1  O5  SGN d5702      65.348  38.817  40.898  0.00  0.00    -0.350 OA
ATOM      2  C2  SGN d5702      63.084  38.087  41.219  0.00  0.00     0.160 C 
ATOM      3  C5  SGN d5702      65.089  39.303  39.603  0.00  0.00     0.181 C 
ATOM      4  C4  SGN d5702      63.609  39.723  39.509  0.00  0.00     0.186 C 
ATOM      5  C3  SGN d5702      62.745  38.467  39.802  0.00  0.00     0.173 C 
ATOM      6  C1  SGN d5702      64.550  37.711  41.328  0.00  0.00     0.278 C 
ENDROOT
BRANCH   4   7
ATOM      7  O4  SGN d5702      63.415  40.226  38.158  0.00  0.00    -0.348 OA
BRANCH   7   8
ATOM      8  C1  IDU d1623      62.480  41.206  37.756  0.00  0.00     0.294 C 
ATOM      9  O5  IDU d1623      62.770  42.541  38.282  0.00  0.00    -0.343 OA
ATOM     10  C5  IDU d1623      61.734  43.540  37.975  0.00  0.00     0.224 C 
ATOM     11  C4  IDU d1623      61.619  43.682  36.448  0.00  0.00     0.077 C 
ATOM     12  C3  IDU d1623      61.297  42.315  35.825  0.00  0.00     0.156 C 
ATOM     13  C2  IDU d1623      62.417  41.342  36.226  0.00  0.00     0.228 C 
BRANCH  10  14
ATOM     14  C6  IDU d1623      62.082  44.887  38.548  0.00  0.00     0.170 C 
ATOM     15  O62 IDU d1623      61.276  45.417  39.328  0.00  0.00    -0.648 OA
BRANCH  14  16
ATOM     16  O61 IDU d1623      63.167  45.401  38.205  0.00  0.00    -0.774 OA
ENDBRANCH  14  16
ENDBRANCH  10  14
BRANCH  12  18
ATOM     18  O3  IDU d1623      60.066  41.858  36.311  0.00  0.00    -0.393 OA
ATOM     19  H   IDU d1623      59.674  41.243  35.671  0.00  0.00     0.210 HD
ENDBRANCH  12  18
BRANCH  13  20
ATOM     20  O2  IDU d1623      63.660  41.840  35.792  0.00  0.00    -0.244 OA
BRANCH  20  21
ATOM     21  S   IDU d1623      64.523  40.946  34.585  0.00  0.00     0.252 S 
ATOM     22  O3S IDU d1623      65.634  41.685  34.115  0.00  0.00    -0.572 OA
ATOM     23  O1S IDU d1623      63.578  40.617  33.561  0.00  0.00    -0.572 OA
ATOM     24  O2S IDU d1623      65.066  39.717  35.143  0.00  0.00    -0.572 OA
ENDBRANCH  20  21
ENDBRANCH  13  20
ENDBRANCH   7   8
ENDBRANCH   4   7
BRANCH   3  25
ATOM     25  C6  SGN d5702      66.019  40.452  39.368  0.00  0.00     0.227 C 
BRANCH  25  26
ATOM     26  O6  SGN d5702      65.570  41.432  40.291  0.00  0.00    -0.254 OA
BRANCH  26  27
ATOM     27  S2  SGN d5702      65.928  43.096  39.974  0.00  0.00     0.251 S 
ATOM     28  O4S SGN d5702      65.899  43.376  38.575  0.00  0.00    -0.572 OA
ATOM     29  O5S SGN d5702      67.237  43.384  40.486  0.00  0.00    -0.572 OA
ATOM     30  O6S SGN d5702      64.889  43.836  40.629  0.00  0.00    -0.572 OA
ENDBRANCH  26  27
ENDBRANCH  25  26
ENDBRANCH   3  25
BRANCH   5  31
ATOM     31  O3  SGN d5702      61.380  38.801  39.741  0.00  0.00    -0.391 OA
ATOM     32  H   SGN d5702      61.145  39.346  40.508  0.00  0.00     0.210 HD
ENDBRANCH   5  31
BRANCH   2  33
ATOM     33  N   SGN d5702      62.319  36.953  41.624  0.00  0.00    -0.189 NA
ATOM     34  H   SGN d5702      62.958  36.210  41.908  0.00  0.00     0.143 HD
BRANCH  33  35
ATOM     35  S1  SGN d5702      61.243  37.330  42.973  0.00  0.00     0.183 S 
ATOM     36  O1S SGN d5702      60.256  38.289  42.519  0.00  0.00    -0.582 OA
ATOM     37  O2S SGN d5702      62.004  37.952  44.007  0.00  0.00    -0.582 OA
ATOM     38  O3S SGN d5702      60.679  36.055  43.376  0.00  0.00    -0.582 OA
ENDBRANCH  33  35
ENDBRANCH   2  33
BRANCH   6  39
ATOM     39  O1  SGN d5702      64.870  36.555  40.591  0.00  0.00    -0.369 OA
ATOM     40  H   SGN d5702      65.595  36.753  39.978  0.00  0.00     0.212 HD
ENDBRANCH   6  39
TORSDOF 14
ENDMDL
MODEL 76
REMARK VINA RESULT:      -3.4      3.346      5.868
REMARK  14 active torsions:
REMARK  status: ('A' for Active; 'I' for Inactive)
REMARK    1  A    between atoms: C5_1  and  C6_23 
REMARK    2  A    between atoms: S2_5  and  O6_7 
REMARK    3  A    between atoms: O1_6  and  C1_35 
REMARK    4  A    between atoms: O6_7  and  C6_21 
REMARK    5  A    between atoms: O2_9  and  C2_28 
REMARK    6  A    between atoms: O2_9  and  S_13 
REMARK    7  A    between atoms: C3_10  and  O3_20 
REMARK    8  A    between atoms: C1_11  and  O4_12 
REMARK    9  A    between atoms: O4_12  and  C4_19 
REMARK   10  A    between atoms: C2_15  and  N_29 
REMARK   11  A    between atoms: C5_17  and  C6_21 
REMARK   12  A    between atoms: C6_23  and  O61_33 
REMARK   13  A    between atoms: O3_24  and  C3_26 
REMARK   14  A    between atoms: S1_27  and  N_29 
ROOT
ATOM      1  O5  SGN d5702      63.680  38.117  37.917  0.00  0.00    -0.350 OA
ATOM      2  C2  SGN d5702      62.530  39.038  39.812  0.00  0.00     0.160 C 
ATOM      3  C5  SGN d5702      63.697  39.346  37.232  0.00  0.00     0.181 C 
ATOM      4  C4  SGN d5702      63.689  40.495  38.260  0.00  0.00     0.186 C 
ATOM      5  C3  SGN d5702      62.395  40.361  39.106  0.00  0.00     0.173 C 
ATOM      6  C1  SGN d5702      62.579  37.904  38.805  0.00  0.00     0.278 C 
ENDROOT
BRANCH   4   7
ATOM      7  O4  SGN d5702      63.723  41.729  37.491  0.00  0.00    -0.348 OA
BRANCH   7   8
ATOM      8  C1  IDU d1623      64.507  42.870  37.772  0.00  0.00     0.294 C 
ATOM      9  O5  IDU d1623      65.934  42.678  37.507  0.00  0.00    -0.343 OA
ATOM     10  C5  IDU d1623      66.774  43.815  37.916  0.00  0.00     0.224 C 
ATOM     11  C4  IDU d1623      66.342  45.061  37.126  0.00  0.00     0.077 C 
ATOM     12  C3  IDU d1623      64.850  45.335  37.370  0.00  0.00     0.156 C 
ATOM     13  C2  IDU d1623      64.067  44.085  36.940  0.00  0.00     0.228 C 
BRANCH  10  14
ATOM     14  C6  IDU d1623      68.228  43.556  37.629  0.00  0.00     0.170 C 
ATOM     15  O62 IDU d1623      68.517  42.897  36.618  0.00  0.00    -0.648 OA
BRANCH  14  16
ATOM     16  O61 IDU d1623      69.069  44.018  38.427  0.00  0.00    -0.774 OA
ENDBRANCH  14  16
ENDBRANCH  10  14
BRANCH  12  18
ATOM     18  O3  IDU d1623      64.638  45.591  38.730  0.00  0.00    -0.393 OA
ATOM     19  H   IDU d1623      64.235  44.813  39.146  0.00  0.00     0.210 HD
ENDBRANCH  12  18
BRANCH  13  20
ATOM     20  O2  IDU d1623      64.336  43.795  35.588  0.00  0.00    -0.244 OA
BRANCH  20  21
ATOM     21  S   IDU d1623      62.995  43.504  34.531  0.00  0.00     0.252 S 
ATOM     22  O3S IDU d1623      63.081  44.321  33.379  0.00  0.00    -0.572 OA
ATOM     23  O1S IDU d1623      61.808  43.722  35.302  0.00  0.00    -0.572 OA
ATOM     24  O2S IDU d1623      63.004  42.131  34.051  0.00  0.00    -0.572 OA
ENDBRANCH  20  21
ENDBRANCH  13  20
ENDBRANCH   7   8
ENDBRANCH   4   7
BRANCH   3  25
ATOM     25  C6  SGN d5702      64.926  39.360  36.378  0.00  0.00     0.227 C 
BRANCH  25  26
ATOM     26  O6  SGN d5702      65.351  38.005  36.392  0.00  0.00    -0.254 OA
BRANCH  26  27
ATOM     27  S2  SGN d5702      66.284  37.415  35.059  0.00  0.00     0.251 S 
ATOM     28  O4S SGN d5702      67.679  37.417  35.360  0.00  0.00    -0.572 OA
ATOM     29  O5S SGN d5702      66.044  38.263  33.926  0.00  0.00    -0.572 OA
ATOM     30  O6S SGN d5702      65.842  36.066  34.858  0.00  0.00    -0.572 OA
ENDBRANCH  26  27
ENDBRANCH  25  26
ENDBRANCH   3  25
BRANCH   5  31
ATOM     31  O3  SGN d5702      62.346  41.383  40.072  0.00  0.00    -0.391 OA
ATOM     32  H   SGN d5702      62.020  41.020  40.910  0.00  0.00     0.210 HD
ENDBRANCH   5  31
BRANCH   2  33
ATOM     33  N   SGN d5702      61.405  38.811  40.658  0.00  0.00    -0.189 NA
ATOM     34  H   SGN d5702      60.984  37.915  40.413  0.00  0.00     0.143 HD
BRANCH  33  35
ATOM     35  S1  SGN d5702      61.858  38.780  42.366  0.00  0.00     0.183 S 
ATOM     36  O1S SGN d5702      61.979  37.397  42.783  0.00  0.00    -0.582 OA
ATOM     37  O2S SGN d5702      60.808  39.370  43.130  0.00  0.00    -0.582 OA
ATOM     38  O3S SGN d5702      63.100  39.525  42.443  0.00  0.00    -0.582 OA
ENDBRANCH  33  35
ENDBRANCH   2  33
BRANCH   6  39
ATOM     39  O1  SGN d5702      61.379  37.771  38.080  0.00  0.00    -0.369 OA
ATOM     40  H   SGN d5702      61.050  36.862  38.166  0.00  0.00     0.212 HD
ENDBRANCH   6  39
TORSDOF 14
ENDMDL
MODEL 77
REMARK VINA RESULT:      -3.4      3.199      5.867
REMARK  14 active torsions:
REMARK  status: ('A' for Active; 'I' for Inactive)
REMARK    1  A    between atoms: C5_1  and  C6_23 
REMARK    2  A    between atoms: S2_5  and  O6_7 
REMARK    3  A    between atoms: O1_6  and  C1_35 
REMARK    4  A    between atoms: O6_7  and  C6_21 
REMARK    5  A    between atoms: O2_9  and  C2_28 
REMARK    6  A    between atoms: O2_9  and  S_13 
REMARK    7  A    between atoms: C3_10  and  O3_20 
REMARK    8  A    between atoms: C1_11  and  O4_12 
REMARK    9  A    between atoms: O4_12  and  C4_19 
REMARK   10  A    between atoms: C2_15  and  N_29 
REMARK   11  A    between atoms: C5_17  and  C6_21 
REMARK   12  A    between atoms: C6_23  and  O61_33 
REMARK   13  A    between atoms: O3_24  and  C3_26 
REMARK   14  A    between atoms: S1_27  and  N_29 
ROOT
ATOM      1  O5  SGN d5702      63.560  38.244  37.672  0.00  0.00    -0.350 OA
ATOM      2  C2  SGN d5702      62.992  38.379  40.000  0.00  0.00     0.160 C 
ATOM      3  C5  SGN d5702      62.987  39.495  37.380  0.00  0.00     0.181 C 
ATOM      4  C4  SGN d5702      63.049  40.384  38.639  0.00  0.00     0.186 C 
ATOM      5  C3  SGN d5702      62.249  39.667  39.759  0.00  0.00     0.173 C 
ATOM      6  C1  SGN d5702      62.970  37.516  38.752  0.00  0.00     0.278 C 
ENDROOT
BRANCH   4   7
ATOM      7  O4  SGN d5702      62.459  41.659  38.265  0.00  0.00    -0.348 OA
BRANCH   7   8
ATOM      8  C1  IDU d1623      63.052  42.932  38.414  0.00  0.00     0.294 C 
ATOM      9  O5  IDU d1623      64.223  43.135  37.559  0.00  0.00    -0.343 OA
ATOM     10  C5  IDU d1623      64.923  44.407  37.799  0.00  0.00     0.224 C 
ATOM     11  C4  IDU d1623      63.957  45.567  37.507  0.00  0.00     0.077 C 
ATOM     12  C3  IDU d1623      62.704  45.430  38.385  0.00  0.00     0.156 C 
ATOM     13  C2  IDU d1623      62.067  44.065  38.082  0.00  0.00     0.228 C 
BRANCH  10  14
ATOM     14  C6  IDU d1623      66.121  44.553  36.901  0.00  0.00     0.170 C 
ATOM     15  O62 IDU d1623      67.143  45.077  37.369  0.00  0.00    -0.648 OA
BRANCH  14  16
ATOM     16  O61 IDU d1623      66.021  44.139  35.728  0.00  0.00    -0.774 OA
ENDBRANCH  14  16
ENDBRANCH  10  14
BRANCH  12  18
ATOM     18  O3  IDU d1623      63.069  45.500  39.735  0.00  0.00    -0.393 OA
ATOM     19  H   IDU d1623      63.771  46.160  39.846  0.00  0.00     0.210 HD
ENDBRANCH  12  18
BRANCH  13  20
ATOM     20  O2  IDU d1623      61.763  43.975  36.710  0.00  0.00    -0.244 OA
BRANCH  20  21
ATOM     21  S   IDU d1623      60.116  43.688  36.255  0.00  0.00     0.252 S 
ATOM     22  O3S IDU d1623      59.240  44.504  37.009  0.00  0.00    -0.572 OA
ATOM     23  O1S IDU d1623      59.881  42.285  36.421  0.00  0.00    -0.572 OA
ATOM     24  O2S IDU d1623      59.895  44.044  34.861  0.00  0.00    -0.572 OA
ENDBRANCH  20  21
ENDBRANCH  13  20
ENDBRANCH   7   8
ENDBRANCH   4   7
BRANCH   3  25
ATOM     25  C6  SGN d5702      63.759  40.079  36.238  0.00  0.00     0.227 C 
BRANCH  25  26
ATOM     26  O6  SGN d5702      65.105  39.756  36.551  0.00  0.00    -0.254 OA
BRANCH  26  27
ATOM     27  S2  SGN d5702      66.122  39.133  35.297  0.00  0.00     0.251 S 
ATOM     28  O4S SGN d5702      65.773  39.679  34.025  0.00  0.00    -0.572 OA
ATOM     29  O5S SGN d5702      65.969  37.706  35.255  0.00  0.00    -0.572 OA
ATOM     30  O6S SGN d5702      67.449  39.549  35.645  0.00  0.00    -0.572 OA
ENDBRANCH  26  27
ENDBRANCH  25  26
ENDBRANCH   3  25
BRANCH   5  31
ATOM     31  O3  SGN d5702      62.286  40.434  40.938  0.00  0.00    -0.391 OA
ATOM     32  H   SGN d5702      61.437  40.357  41.401  0.00  0.00     0.210 HD
ENDBRANCH   5  31
BRANCH   2  33
ATOM     33  N   SGN d5702      62.368  37.637  41.046  0.00  0.00    -0.189 NA
ATOM     34  H   SGN d5702      62.107  36.718  40.687  0.00  0.00     0.143 HD
BRANCH  33  35
ATOM     35  S1  SGN d5702      63.438  37.425  42.435  0.00  0.00     0.183 S 
ATOM     36  O1S SGN d5702      62.644  36.972  43.560  0.00  0.00    -0.582 OA
ATOM     37  O2S SGN d5702      63.994  38.691  42.784  0.00  0.00    -0.582 OA
ATOM     38  O3S SGN d5702      64.438  36.469  42.002  0.00  0.00    -0.582 OA
ENDBRANCH  33  35
ENDBRANCH   2  33
BRANCH   6  39
ATOM     39  O1  SGN d5702      61.672  37.091  38.410  0.00  0.00    -0.369 OA
ATOM     40  H   SGN d5702      61.481  36.249  38.852  0.00  0.00     0.212 HD
ENDBRANCH   6  39
TORSDOF 14
ENDMDL
MODEL 78
REMARK VINA RESULT:      -3.4      2.580      3.678
REMARK  14 active torsions:
REMARK  status: ('A' for Active; 'I' for Inactive)
REMARK    1  A    between atoms: C5_1  and  C6_23 
REMARK    2  A    between atoms: S2_5  and  O6_7 
REMARK    3  A    between atoms: O1_6  and  C1_35 
REMARK    4  A    between atoms: O6_7  and  C6_21 
REMARK    5  A    between atoms: O2_9  and  C2_28 
REMARK    6  A    between atoms: O2_9  and  S_13 
REMARK    7  A    between atoms: C3_10  and  O3_20 
REMARK    8  A    between atoms: C1_11  and  O4_12 
REMARK    9  A    between atoms: O4_12  and  C4_19 
REMARK   10  A    between atoms: C2_15  and  N_29 
REMARK   11  A    between atoms: C5_17  and  C6_21 
REMARK   12  A    between atoms: C6_23  and  O61_33 
REMARK   13  A    between atoms: O3_24  and  C3_26 
REMARK   14  A    between atoms: S1_27  and  N_29 
ROOT
ATOM      1  O5  SGN d5702      62.580  41.976  38.899  0.00  0.00    -0.350 OA
ATOM      2  C2  SGN d5702      63.738  39.887  38.657  0.00  0.00     0.160 C 
ATOM      3  C5  SGN d5702      63.575  42.695  38.212  0.00  0.00     0.181 C 
ATOM      4  C4  SGN d5702      64.275  41.756  37.210  0.00  0.00     0.186 C 
ATOM      5  C3  SGN d5702      64.907  40.592  38.020  0.00  0.00     0.173 C 
ATOM      6  C1  SGN d5702      63.019  40.819  39.616  0.00  0.00     0.278 C 
ENDROOT
BRANCH   4   7
ATOM      7  O4  SGN d5702      65.275  42.562  36.527  0.00  0.00    -0.348 OA
BRANCH   7   8
ATOM      8  C1  IDU d1623      65.469  42.650  35.131  0.00  0.00     0.294 C 
ATOM      9  O5  IDU d1623      64.504  43.523  34.460  0.00  0.00    -0.343 OA
ATOM     10  C5  IDU d1623      64.617  43.520  32.993  0.00  0.00     0.224 C 
ATOM     11  C4  IDU d1623      66.015  44.027  32.603  0.00  0.00     0.077 C 
ATOM     12  C3  IDU d1623      67.087  43.143  33.260  0.00  0.00     0.156 C 
ATOM     13  C2  IDU d1623      66.865  43.190  34.780  0.00  0.00     0.228 C 
BRANCH  10  14
ATOM     14  C6  IDU d1623      63.595  44.426  32.361  0.00  0.00     0.170 C 
ATOM     15  O62 IDU d1623      63.029  44.039  31.328  0.00  0.00    -0.648 OA
BRANCH  14  16
ATOM     16  O61 IDU d1623      63.372  45.523  32.913  0.00  0.00    -0.774 OA
ENDBRANCH  14  16
ENDBRANCH  10  14
BRANCH  12  18
ATOM     18  O3  IDU d1623      66.957  41.828  32.796  0.00  0.00    -0.393 OA
ATOM     19  H   IDU d1623      67.794  41.542  32.397  0.00  0.00     0.210 HD
ENDBRANCH  12  18
BRANCH  13  20
ATOM     20  O2  IDU d1623      66.931  44.522  35.230  0.00  0.00    -0.244 OA
BRANCH  20  21
ATOM     21  S   IDU d1623      68.179  44.945  36.355  0.00  0.00     0.252 S 
ATOM     22  O3S IDU d1623      67.974  46.250  36.861  0.00  0.00    -0.572 OA
ATOM     23  O1S IDU d1623      69.425  44.784  35.667  0.00  0.00    -0.572 OA
ATOM     24  O2S IDU d1623      68.157  44.059  37.509  0.00  0.00    -0.572 OA
ENDBRANCH  20  21
ENDBRANCH  13  20
ENDBRANCH   7   8
ENDBRANCH   4   7
BRANCH   3  25
ATOM     25  C6  SGN d5702      62.899  43.845  37.532  0.00  0.00     0.227 C 
BRANCH  25  26
ATOM     26  O6  SGN d5702      61.519  43.545  37.674  0.00  0.00    -0.254 OA
BRANCH  26  27
ATOM     27  S2  SGN d5702      60.520  43.548  36.261  0.00  0.00     0.251 S 
ATOM     28  O4S SGN d5702      59.880  42.286  36.074  0.00  0.00    -0.572 OA
ATOM     29  O5S SGN d5702      61.346  43.831  35.121  0.00  0.00    -0.572 OA
ATOM     30  O6S SGN d5702      59.527  44.554  36.503  0.00  0.00    -0.572 OA
ENDBRANCH  26  27
ENDBRANCH  25  26
ENDBRANCH   3  25
BRANCH   5  31
ATOM     31  O3  SGN d5702      65.549  39.695  37.146  0.00  0.00    -0.391 OA
ATOM     32  H   SGN d5702      65.453  38.791  37.483  0.00  0.00     0.210 HD
ENDBRANCH   5  31
BRANCH   2  33
ATOM     33  N   SGN d5702      64.190  38.763  39.410  0.00  0.00    -0.189 NA
ATOM     34  H   SGN d5702      64.323  39.049  40.381  0.00  0.00     0.143 HD
BRANCH  33  35
ATOM     35  S1  SGN d5702      63.034  37.428  39.362  0.00  0.00     0.183 S 
ATOM     36  O1S SGN d5702      62.111  37.660  38.269  0.00  0.00    -0.582 OA
ATOM     37  O2S SGN d5702      62.278  37.431  40.571  0.00  0.00    -0.582 OA
ATOM     38  O3S SGN d5702      63.840  36.233  39.203  0.00  0.00    -0.582 OA
ENDBRANCH  33  35
ENDBRANCH   2  33
BRANCH   6  39
ATOM     39  O1  SGN d5702      63.820  41.192  40.712  0.00  0.00    -0.369 OA
ATOM     40  H   SGN d5702      64.750  41.219  40.439  0.00  0.00     0.212 HD
ENDBRANCH   6  39
TORSDOF 14
ENDMDL
MODEL 79
REMARK VINA RESULT:      -3.4      3.719      5.950
REMARK  14 active torsions:
REMARK  status: ('A' for Active; 'I' for Inactive)
REMARK    1  A    between atoms: C5_1  and  C6_23 
REMARK    2  A    between atoms: S2_5  and  O6_7 
REMARK    3  A    between atoms: O1_6  and  C1_35 
REMARK    4  A    between atoms: O6_7  and  C6_21 
REMARK    5  A    between atoms: O2_9  and  C2_28 
REMARK    6  A    between atoms: O2_9  and  S_13 
REMARK    7  A    between atoms: C3_10  and  O3_20 
REMARK    8  A    between atoms: C1_11  and  O4_12 
REMARK    9  A    between atoms: O4_12  and  C4_19 
REMARK   10  A    between atoms: C2_15  and  N_29 
REMARK   11  A    between atoms: C5_17  and  C6_21 
REMARK   12  A    between atoms: C6_23  and  O61_33 
REMARK   13  A    between atoms: O3_24  and  C3_26 
REMARK   14  A    between atoms: S1_27  and  N_29 
ROOT
ATOM      1  O5  SGN d5702      62.224  40.388  36.715  0.00  0.00    -0.350 OA
ATOM      2  C2  SGN d5702      62.630  39.191  38.756  0.00  0.00     0.160 C 
ATOM      3  C5  SGN d5702      62.351  41.644  37.336  0.00  0.00     0.181 C 
ATOM      4  C4  SGN d5702      63.293  41.514  38.549  0.00  0.00     0.186 C 
ATOM      5  C3  SGN d5702      62.662  40.485  39.526  0.00  0.00     0.173 C 
ATOM      6  C1  SGN d5702      61.736  39.324  37.538  0.00  0.00     0.278 C 
ENDROOT
BRANCH   4   7
ATOM      7  O4  SGN d5702      63.392  42.842  39.132  0.00  0.00    -0.348 OA
BRANCH   7   8
ATOM      8  C1  IDU d1623      64.579  43.497  39.528  0.00  0.00     0.294 C 
ATOM      9  O5  IDU d1623      65.386  43.976  38.404  0.00  0.00    -0.343 OA
ATOM     10  C5  IDU d1623      66.684  44.544  38.802  0.00  0.00     0.224 C 
ATOM     11  C4  IDU d1623      66.436  45.756  39.715  0.00  0.00     0.077 C 
ATOM     12  C3  IDU d1623      65.604  45.323  40.933  0.00  0.00     0.156 C 
ATOM     13  C2  IDU d1623      64.290  44.721  40.412  0.00  0.00     0.228 C 
BRANCH  10  14
ATOM     14  C6  IDU d1623      67.470  45.008  37.606  0.00  0.00     0.170 C 
ATOM     15  O62 IDU d1623      68.515  45.647  37.805  0.00  0.00    -0.648 OA
BRANCH  14  16
ATOM     16  O61 IDU d1623      67.026  44.726  36.475  0.00  0.00    -0.774 OA
ENDBRANCH  14  16
ENDBRANCH  10  14
BRANCH  12  18
ATOM     18  O3  IDU d1623      66.314  44.366  41.668  0.00  0.00    -0.393 OA
ATOM     19  H   IDU d1623      65.763  44.047  42.400  0.00  0.00     0.210 HD
ENDBRANCH  12  18
BRANCH  13  20
ATOM     20  O2  IDU d1623      63.613  45.667  39.619  0.00  0.00    -0.244 OA
BRANCH  20  21
ATOM     21  S   IDU d1623      62.047  46.197  40.137  0.00  0.00     0.252 S 
ATOM     22  O3S IDU d1623      61.444  47.013  39.151  0.00  0.00    -0.572 OA
ATOM     23  O1S IDU d1623      62.230  46.857  41.395  0.00  0.00    -0.572 OA
ATOM     24  O2S IDU d1623      61.153  45.065  40.322  0.00  0.00    -0.572 OA
ENDBRANCH  20  21
ENDBRANCH  13  20
ENDBRANCH   7   8
ENDBRANCH   4   7
BRANCH   3  25
ATOM     25  C6  SGN d5702      62.881  42.593  36.308  0.00  0.00     0.227 C 
BRANCH  25  26
ATOM     26  O6  SGN d5702      61.783  42.768  35.424  0.00  0.00    -0.254 OA
BRANCH  26  27
ATOM     27  S2  SGN d5702      60.343  43.513  36.029  0.00  0.00     0.251 S 
ATOM     28  O4S SGN d5702      60.647  44.583  36.924  0.00  0.00    -0.572 OA
ATOM     29  O5S SGN d5702      59.576  42.520  36.726  0.00  0.00    -0.572 OA
ATOM     30  O6S SGN d5702      59.674  44.035  34.874  0.00  0.00    -0.572 OA
ENDBRANCH  26  27
ENDBRANCH  25  26
ENDBRANCH   3  25
BRANCH   5  31
ATOM     31  O3  SGN d5702      63.494  40.320  40.649  0.00  0.00    -0.391 OA
ATOM     32  H   SGN d5702      63.983  39.486  40.568  0.00  0.00     0.210 HD
ENDBRANCH   5  31
BRANCH   2  33
ATOM     33  N   SGN d5702      62.097  38.146  39.567  0.00  0.00    -0.189 NA
ATOM     34  H   SGN d5702      61.190  37.868  39.191  0.00  0.00     0.143 HD
BRANCH  33  35
ATOM     35  S1  SGN d5702      63.157  36.734  39.606  0.00  0.00     0.183 S 
ATOM     36  O1S SGN d5702      62.335  35.546  39.727  0.00  0.00    -0.582 OA
ATOM     37  O2S SGN d5702      63.978  36.808  40.771  0.00  0.00    -0.582 OA
ATOM     38  O3S SGN d5702      63.919  36.796  38.374  0.00  0.00    -0.582 OA
ENDBRANCH  33  35
ENDBRANCH   2  33
BRANCH   6  39
ATOM     39  O1  SGN d5702      60.387  39.541  37.876  0.00  0.00    -0.369 OA
ATOM     40  H   SGN d5702      59.870  38.746  37.668  0.00  0.00     0.212 HD
ENDBRANCH   6  39
TORSDOF 14
ENDMDL
MODEL 80
REMARK VINA RESULT:      -3.4      2.889      6.684
REMARK  14 active torsions:
REMARK  status: ('A' for Active; 'I' for Inactive)
REMARK    1  A    between atoms: C5_1  and  C6_23 
REMARK    2  A    between atoms: S2_5  and  O6_7 
REMARK    3  A    between atoms: O1_6  and  C1_35 
REMARK    4  A    between atoms: O6_7  and  C6_21 
REMARK    5  A    between atoms: O2_9  and  C2_28 
REMARK    6  A    between atoms: O2_9  and  S_13 
REMARK    7  A    between atoms: C3_10  and  O3_20 
REMARK    8  A    between atoms: C1_11  and  O4_12 
REMARK    9  A    between atoms: O4_12  and  C4_19 
REMARK   10  A    between atoms: C2_15  and  N_29 
REMARK   11  A    between atoms: C5_17  and  C6_21 
REMARK   12  A    between atoms: C6_23  and  O61_33 
REMARK   13  A    between atoms: O3_24  and  C3_26 
REMARK   14  A    between atoms: S1_27  and  N_29 
ROOT
ATOM      1  O5  SGN d5702      67.019  43.305  33.208  0.00  0.00    -0.350 OA
ATOM      2  C2  SGN d5702      66.158  41.434  31.975  0.00  0.00     0.160 C 
ATOM      3  C5  SGN d5702      65.779  43.576  33.814  0.00  0.00     0.181 C 
ATOM      4  C4  SGN d5702      64.973  42.266  33.919  0.00  0.00     0.186 C 
ATOM      5  C3  SGN d5702      64.768  41.723  32.480  0.00  0.00     0.173 C 
ATOM      6  C1  SGN d5702      66.970  42.714  31.906  0.00  0.00     0.278 C 
ENDROOT
BRANCH   4   7
ATOM      7  O4  SGN d5702      63.716  42.613  34.564  0.00  0.00    -0.348 OA
BRANCH   7   8
ATOM      8  C1  IDU d1623      62.764  41.708  35.084  0.00  0.00     0.294 C 
ATOM      9  O5  IDU d1623      63.310  40.803  36.098  0.00  0.00    -0.343 OA
ATOM     10  C5  IDU d1623      62.361  39.775  36.551  0.00  0.00     0.224 C 
ATOM     11  C4  IDU d1623      61.145  40.468  37.188  0.00  0.00     0.077 C 
ATOM     12  C3  IDU d1623      60.507  41.427  36.171  0.00  0.00     0.156 C 
ATOM     13  C2  IDU d1623      61.581  42.438  35.741  0.00  0.00     0.228 C 
BRANCH  10  14
ATOM     14  C6  IDU d1623      62.981  38.871  37.582  0.00  0.00     0.170 C 
ATOM     15  O62 IDU d1623      64.218  38.829  37.656  0.00  0.00    -0.648 OA
BRANCH  14  16
ATOM     16  O61 IDU d1623      62.213  38.208  38.310  0.00  0.00    -0.774 OA
ENDBRANCH  14  16
ENDBRANCH  10  14
BRANCH  12  18
ATOM     18  O3  IDU d1623      60.058  40.701  35.062  0.00  0.00    -0.393 OA
ATOM     19  H   IDU d1623      60.158  39.752  35.235  0.00  0.00     0.210 HD
ENDBRANCH  12  18
BRANCH  13  20
ATOM     20  O2  IDU d1623      62.075  43.118  36.870  0.00  0.00    -0.244 OA
BRANCH  20  21
ATOM     21  S   IDU d1623      61.371  44.648  37.276  0.00  0.00     0.252 S 
ATOM     22  O3S IDU d1623      60.031  44.716  36.827  0.00  0.00    -0.572 OA
ATOM     23  O1S IDU d1623      62.218  45.655  36.709  0.00  0.00    -0.572 OA
ATOM     24  O2S IDU d1623      61.320  44.828  38.718  0.00  0.00    -0.572 OA
ENDBRANCH  20  21
ENDBRANCH  13  20
ENDBRANCH   7   8
ENDBRANCH   4   7
BRANCH   3  25
ATOM     25  C6  SGN d5702      66.064  44.175  35.156  0.00  0.00     0.227 C 
BRANCH  25  26
ATOM     26  O6  SGN d5702      66.347  43.044  35.966  0.00  0.00    -0.254 OA
BRANCH  26  27
ATOM     27  S2  SGN d5702      66.139  43.179  37.679  0.00  0.00     0.251 S 
ATOM     28  O4S SGN d5702      65.809  41.919  38.264  0.00  0.00    -0.572 OA
ATOM     29  O5S SGN d5702      65.077  44.109  37.936  0.00  0.00    -0.572 OA
ATOM     30  O6S SGN d5702      67.409  43.618  38.180  0.00  0.00    -0.572 OA
ENDBRANCH  26  27
ENDBRANCH  25  26
ENDBRANCH   3  25
BRANCH   5  31
ATOM     31  O3  SGN d5702      64.046  40.516  32.522  0.00  0.00    -0.391 OA
ATOM     32  H   SGN d5702      64.503  39.847  31.989  0.00  0.00     0.210 HD
ENDBRANCH   5  31
BRANCH   2  33
ATOM     33  N   SGN d5702      66.102  40.891  30.658  0.00  0.00    -0.189 NA
ATOM     34  H   SGN d5702      66.744  41.412  30.059  0.00  0.00     0.143 HD
BRANCH  33  35
ATOM     35  S1  SGN d5702      66.554  39.183  30.628  0.00  0.00     0.183 S 
ATOM     36  O1S SGN d5702      65.551  38.456  29.876  0.00  0.00    -0.582 OA
ATOM     37  O2S SGN d5702      66.538  38.681  31.963  0.00  0.00    -0.582 OA
ATOM     38  O3S SGN d5702      67.874  39.150  30.028  0.00  0.00    -0.582 OA
ENDBRANCH  33  35
ENDBRANCH   2  33
BRANCH   6  39
ATOM     39  O1  SGN d5702      66.461  43.630  30.967  0.00  0.00    -0.369 OA
ATOM     40  H   SGN d5702      66.295  43.174  30.127  0.00  0.00     0.212 HD
ENDBRANCH   6  39
TORSDOF 14
ENDMDL
MODEL 81
REMARK VINA RESULT:      -3.4      3.085      5.140
REMARK  14 active torsions:
REMARK  status: ('A' for Active; 'I' for Inactive)
REMARK    1  A    between atoms: C5_1  and  C6_23 
REMARK    2  A    between atoms: S2_5  and  O6_7 
REMARK    3  A    between atoms: O1_6  and  C1_35 
REMARK    4  A    between atoms: O6_7  and  C6_21 
REMARK    5  A    between atoms: O2_9  and  C2_28 
REMARK    6  A    between atoms: O2_9  and  S_13 
REMARK    7  A    between atoms: C3_10  and  O3_20 
REMARK    8  A    between atoms: C1_11  and  O4_12 
REMARK    9  A    between atoms: O4_12  and  C4_19 
REMARK   10  A    between atoms: C2_15  and  N_29 
REMARK   11  A    between atoms: C5_17  and  C6_21 
REMARK   12  A    between atoms: C6_23  and  O61_33 
REMARK   13  A    between atoms: O3_24  and  C3_26 
REMARK   14  A    between atoms: S1_27  and  N_29 
ROOT
ATOM      1  O5  SGN d5702      64.295  39.829  41.382  0.00  0.00    -0.350 OA
ATOM      2  C2  SGN d5702      63.756  37.884  40.081  0.00  0.00     0.160 C 
ATOM      3  C5  SGN d5702      64.696  40.567  40.254  0.00  0.00     0.181 C 
ATOM      4  C4  SGN d5702      63.929  40.056  39.018  0.00  0.00     0.186 C 
ATOM      5  C3  SGN d5702      64.277  38.554  38.837  0.00  0.00     0.173 C 
ATOM      6  C1  SGN d5702      64.479  38.412  41.307  0.00  0.00     0.278 C 
ENDROOT
BRANCH   4   7
ATOM      7  O4  SGN d5702      64.376  40.868  37.898  0.00  0.00    -0.348 OA
BRANCH   7   8
ATOM      8  C1  IDU d1623      63.578  41.334  36.830  0.00  0.00     0.294 C 
ATOM      9  O5  IDU d1623      62.610  42.358  37.228  0.00  0.00    -0.343 OA
ATOM     10  C5  IDU d1623      61.688  42.757  36.152  0.00  0.00     0.224 C 
ATOM     11  C4  IDU d1623      62.506  43.350  34.994  0.00  0.00     0.077 C 
ATOM     12  C3  IDU d1623      63.538  42.320  34.509  0.00  0.00     0.156 C 
ATOM     13  C2  IDU d1623      64.428  41.949  35.706  0.00  0.00     0.228 C 
BRANCH  10  14
ATOM     14  C6  IDU d1623      60.713  43.801  36.623  0.00  0.00     0.170 C 
ATOM     15  O62 IDU d1623      59.504  43.524  36.606  0.00  0.00    -0.648 OA
BRANCH  14  16
ATOM     16  O61 IDU d1623      61.174  44.896  37.006  0.00  0.00    -0.774 OA
ENDBRANCH  14  16
ENDBRANCH  10  14
BRANCH  12  18
ATOM     18  O3  IDU d1623      62.875  41.182  34.033  0.00  0.00    -0.393 OA
ATOM     19  H   IDU d1623      61.928  41.255  34.228  0.00  0.00     0.210 HD
ENDBRANCH  12  18
BRANCH  13  20
ATOM     20  O2  IDU d1623      65.040  43.108  36.222  0.00  0.00    -0.244 OA
BRANCH  20  21
ATOM     21  S   IDU d1623      66.752  43.080  36.483  0.00  0.00     0.252 S 
ATOM     22  O3S IDU d1623      67.318  41.893  35.962  0.00  0.00    -0.572 OA
ATOM     23  O1S IDU d1623      66.958  43.244  37.891  0.00  0.00    -0.572 OA
ATOM     24  O2S IDU d1623      67.400  44.176  35.779  0.00  0.00    -0.572 OA
ENDBRANCH  20  21
ENDBRANCH  13  20
ENDBRANCH   7   8
ENDBRANCH   4   7
BRANCH   3  25
ATOM     25  C6  SGN d5702      64.407  42.007  40.543  0.00  0.00     0.227 C 
BRANCH  25  26
ATOM     26  O6  SGN d5702      62.989  42.054  40.594  0.00  0.00    -0.254 OA
BRANCH  26  27
ATOM     27  S2  SGN d5702      62.229  42.603  42.049  0.00  0.00     0.251 S 
ATOM     28  O4S SGN d5702      63.195  42.984  43.028  0.00  0.00    -0.572 OA
ATOM     29  O5S SGN d5702      61.424  41.535  42.572  0.00  0.00    -0.572 OA
ATOM     30  O6S SGN d5702      61.463  43.752  41.665  0.00  0.00    -0.572 OA
ENDBRANCH  26  27
ENDBRANCH  25  26
ENDBRANCH   3  25
BRANCH   5  31
ATOM     31  O3  SGN d5702      63.589  38.034  37.726  0.00  0.00    -0.391 OA
ATOM     32  H   SGN d5702      62.656  37.901  37.956  0.00  0.00     0.210 HD
ENDBRANCH   5  31
BRANCH   2  33
ATOM     33  N   SGN d5702      63.987  36.479  40.020  0.00  0.00    -0.189 NA
ATOM     34  H   SGN d5702      64.618  36.215  40.778  0.00  0.00     0.143 HD
BRANCH  33  35
ATOM     35  S1  SGN d5702      62.490  35.555  40.177  0.00  0.00     0.183 S 
ATOM     36  O1S SGN d5702      61.774  36.036  41.342  0.00  0.00    -0.582 OA
ATOM     37  O2S SGN d5702      62.816  34.186  40.408  0.00  0.00    -0.582 OA
ATOM     38  O3S SGN d5702      61.782  35.764  38.928  0.00  0.00    -0.582 OA
ENDBRANCH  33  35
ENDBRANCH   2  33
BRANCH   6  39
ATOM     39  O1  SGN d5702      65.850  38.092  41.308  0.00  0.00    -0.369 OA
ATOM     40  H   SGN d5702      65.979  37.226  41.727  0.00  0.00     0.212 HD
ENDBRANCH   6  39
TORSDOF 14
ENDMDL
MODEL 82
REMARK VINA RESULT:      -3.4      3.694      6.079
REMARK  14 active torsions:
REMARK  status: ('A' for Active; 'I' for Inactive)
REMARK    1  A    between atoms: C5_1  and  C6_23 
REMARK    2  A    between atoms: S2_5  and  O6_7 
REMARK    3  A    between atoms: O1_6  and  C1_35 
REMARK    4  A    between atoms: O6_7  and  C6_21 
REMARK    5  A    between atoms: O2_9  and  C2_28 
REMARK    6  A    between atoms: O2_9  and  S_13 
REMARK    7  A    between atoms: C3_10  and  O3_20 
REMARK    8  A    between atoms: C1_11  and  O4_12 
REMARK    9  A    between atoms: O4_12  and  C4_19 
REMARK   10  A    between atoms: C2_15  and  N_29 
REMARK   11  A    between atoms: C5_17  and  C6_21 
REMARK   12  A    between atoms: C6_23  and  O61_33 
REMARK   13  A    between atoms: O3_24  and  C3_26 
REMARK   14  A    between atoms: S1_27  and  N_29 
ROOT
ATOM      1  O5  SGN d5702      63.712  40.133  42.156  0.00  0.00    -0.350 OA
ATOM      2  C2  SGN d5702      61.733  38.946  41.497  0.00  0.00     0.160 C 
ATOM      3  C5  SGN d5702      64.147  40.300  40.829  0.00  0.00     0.181 C 
ATOM      4  C4  SGN d5702      62.920  40.324  39.895  0.00  0.00     0.186 C 
ATOM      5  C3  SGN d5702      62.179  38.970  40.059  0.00  0.00     0.173 C 
ATOM      6  C1  SGN d5702      62.935  38.962  42.423  0.00  0.00     0.278 C 
ENDROOT
BRANCH   4   7
ATOM      7  O4  SGN d5702      63.437  40.513  38.549  0.00  0.00    -0.348 OA
BRANCH   7   8
ATOM      8  C1  IDU d1623      62.736  41.061  37.452  0.00  0.00     0.294 C 
ATOM      9  O5  IDU d1623      62.190  42.394  37.714  0.00  0.00    -0.343 OA
ATOM     10  C5  IDU d1623      61.351  42.918  36.625  0.00  0.00     0.224 C 
ATOM     11  C4  IDU d1623      62.205  43.033  35.352  0.00  0.00     0.077 C 
ATOM     12  C3  IDU d1623      62.800  41.660  35.004  0.00  0.00     0.156 C 
ATOM     13  C2  IDU d1623      63.630  41.190  36.209  0.00  0.00     0.228 C 
BRANCH  10  14
ATOM     14  C6  IDU d1623      60.812  44.284  36.955  0.00  0.00     0.170 C 
ATOM     15  O62 IDU d1623      61.623  45.197  37.173  0.00  0.00    -0.648 OA
BRANCH  14  16
ATOM     16  O61 IDU d1623      59.572  44.425  36.994  0.00  0.00    -0.774 OA
ENDBRANCH  14  16
ENDBRANCH  10  14
BRANCH  12  18
ATOM     18  O3  IDU d1623      61.765  40.752  34.750  0.00  0.00    -0.393 OA
ATOM     19  H   IDU d1623      61.443  40.874  33.843  0.00  0.00     0.210 HD
ENDBRANCH  12  18
BRANCH  13  20
ATOM     20  O2  IDU d1623      64.628  42.140  36.500  0.00  0.00    -0.244 OA
BRANCH  20  21
ATOM     21  S   IDU d1623      66.282  41.690  36.254  0.00  0.00     0.252 S 
ATOM     22  O3S IDU d1623      66.583  41.629  34.872  0.00  0.00    -0.572 OA
ATOM     23  O1S IDU d1623      66.478  40.448  36.939  0.00  0.00    -0.572 OA
ATOM     24  O2S IDU d1623      67.179  42.688  36.815  0.00  0.00    -0.572 OA
ENDBRANCH  20  21
ENDBRANCH  13  20
ENDBRANCH   7   8
ENDBRANCH   4   7
BRANCH   3  25
ATOM     25  C6  SGN d5702      64.924  41.578  40.775  0.00  0.00     0.227 C 
BRANCH  25  26
ATOM     26  O6  SGN d5702      63.914  42.576  40.780  0.00  0.00    -0.254 OA
BRANCH  26  27
ATOM     27  S2  SGN d5702      63.951  43.787  42.016  0.00  0.00     0.251 S 
ATOM     28  O4S SGN d5702      63.443  45.033  41.539  0.00  0.00    -0.572 OA
ATOM     29  O5S SGN d5702      65.312  43.964  42.438  0.00  0.00    -0.572 OA
ATOM     30  O6S SGN d5702      63.097  43.292  43.056  0.00  0.00    -0.572 OA
ENDBRANCH  26  27
ENDBRANCH  25  26
ENDBRANCH   3  25
BRANCH   5  31
ATOM     31  O3  SGN d5702      61.039  38.947  39.235  0.00  0.00    -0.391 OA
ATOM     32  H   SGN d5702      60.677  39.843  39.158  0.00  0.00     0.210 HD
ENDBRANCH   5  31
BRANCH   2  33
ATOM     33  N   SGN d5702      61.000  37.753  41.768  0.00  0.00    -0.189 NA
ATOM     34  H   SGN d5702      61.658  37.005  41.991  0.00  0.00     0.143 HD
BRANCH  33  35
ATOM     35  S1  SGN d5702      59.885  37.954  43.123  0.00  0.00     0.183 S 
ATOM     36  O1S SGN d5702      60.180  36.939  44.115  0.00  0.00    -0.582 OA
ATOM     37  O2S SGN d5702      58.555  37.730  42.661  0.00  0.00    -0.582 OA
ATOM     38  O3S SGN d5702      60.099  39.310  43.592  0.00  0.00    -0.582 OA
ENDBRANCH  33  35
ENDBRANCH   2  33
BRANCH   6  39
ATOM     39  O1  SGN d5702      63.728  37.805  42.303  0.00  0.00    -0.369 OA
ATOM     40  H   SGN d5702      64.145  37.610  43.157  0.00  0.00     0.212 HD
ENDBRANCH   6  39
TORSDOF 14
ENDMDL
MODEL 83
REMARK VINA RESULT:      -3.3      3.723      7.731
REMARK  14 active torsions:
REMARK  status: ('A' for Active; 'I' for Inactive)
REMARK    1  A    between atoms: C5_1  and  C6_23 
REMARK    2  A    between atoms: S2_5  and  O6_7 
REMARK    3  A    between atoms: O1_6  and  C1_35 
REMARK    4  A    between atoms: O6_7  and  C6_21 
REMARK    5  A    between atoms: O2_9  and  C2_28 
REMARK    6  A    between atoms: O2_9  and  S_13 
REMARK    7  A    between atoms: C3_10  and  O3_20 
REMARK    8  A    between atoms: C1_11  and  O4_12 
REMARK    9  A    between atoms: O4_12  and  C4_19 
REMARK   10  A    between atoms: C2_15  and  N_29 
REMARK   11  A    between atoms: C5_17  and  C6_21 
REMARK   12  A    between atoms: C6_23  and  O61_33 
REMARK   13  A    between atoms: O3_24  and  C3_26 
REMARK   14  A    between atoms: S1_27  and  N_29 
ROOT
ATOM      1  O5  SGN d5702      62.773  43.759  36.738  0.00  0.00    -0.350 OA
ATOM      2  C2  SGN d5702      63.361  41.820  35.451  0.00  0.00     0.160 C 
ATOM      3  C5  SGN d5702      62.697  43.033  37.941  0.00  0.00     0.181 C 
ATOM      4  C4  SGN d5702      63.646  41.821  37.858  0.00  0.00     0.186 C 
ATOM      5  C3  SGN d5702      63.185  40.944  36.663  0.00  0.00     0.173 C 
ATOM      6  C1  SGN d5702      62.459  43.037  35.544  0.00  0.00     0.278 C 
ENDROOT
BRANCH   4   7
ATOM      7  O4  SGN d5702      63.530  41.128  39.132  0.00  0.00    -0.348 OA
BRANCH   7   8
ATOM      8  C1  IDU d1623      64.563  40.443  39.809  0.00  0.00     0.294 C 
ATOM      9  O5  IDU d1623      65.711  41.293  40.136  0.00  0.00    -0.343 OA
ATOM     10  C5  IDU d1623      66.844  40.562  40.726  0.00  0.00     0.224 C 
ATOM     11  C4  IDU d1623      66.385  39.916  42.043  0.00  0.00     0.077 C 
ATOM     12  C3  IDU d1623      65.187  38.992  41.774  0.00  0.00     0.156 C 
ATOM     13  C2  IDU d1623      64.075  39.839  41.136  0.00  0.00     0.228 C 
BRANCH  10  14
ATOM     14  C6  IDU d1623      67.994  41.484  41.029  0.00  0.00     0.170 C 
ATOM     15  O62 IDU d1623      68.721  41.213  41.997  0.00  0.00    -0.648 OA
BRANCH  14  16
ATOM     16  O61 IDU d1623      68.153  42.476  40.289  0.00  0.00    -0.774 OA
ENDBRANCH  14  16
ENDBRANCH  10  14
BRANCH  12  18
ATOM     18  O3  IDU d1623      65.573  37.967  40.901  0.00  0.00    -0.393 OA
ATOM     19  H   IDU d1623      65.141  37.139  41.163  0.00  0.00     0.210 HD
ENDBRANCH  12  18
BRANCH  13  20
ATOM     20  O2  IDU d1623      63.738  40.906  41.990  0.00  0.00    -0.244 OA
BRANCH  20  21
ATOM     21  S   IDU d1623      62.145  40.937  42.669  0.00  0.00     0.252 S 
ATOM     22  O3S IDU d1623      61.440  39.754  42.344  0.00  0.00    -0.572 OA
ATOM     23  O1S IDU d1623      61.516  42.131  42.189  0.00  0.00    -0.572 OA
ATOM     24  O2S IDU d1623      62.203  40.983  44.122  0.00  0.00    -0.572 OA
ENDBRANCH  20  21
ENDBRANCH  13  20
ENDBRANCH   7   8
ENDBRANCH   4   7
BRANCH   3  25
ATOM     25  C6  SGN d5702      63.071  43.970  39.046  0.00  0.00     0.227 C 
BRANCH  25  26
ATOM     26  O6  SGN d5702      61.821  44.300  39.635  0.00  0.00    -0.254 OA
BRANCH  26  27
ATOM     27  S2  SGN d5702      61.000  45.724  39.094  0.00  0.00     0.251 S 
ATOM     28  O4S SGN d5702      61.908  46.656  38.507  0.00  0.00    -0.572 OA
ATOM     29  O5S SGN d5702      60.362  46.337  40.224  0.00  0.00    -0.572 OA
ATOM     30  O6S SGN d5702      60.074  45.271  38.098  0.00  0.00    -0.572 OA
ENDBRANCH  26  27
ENDBRANCH  25  26
ENDBRANCH   3  25
BRANCH   5  31
ATOM     31  O3  SGN d5702      64.030  39.826  36.537  0.00  0.00    -0.391 OA
ATOM     32  H   SGN d5702      63.732  39.278  35.795  0.00  0.00     0.210 HD
ENDBRANCH   5  31
BRANCH   2  33
ATOM     33  N   SGN d5702      63.000  41.108  34.270  0.00  0.00    -0.189 NA
ATOM     34  H   SGN d5702      62.279  41.634  33.775  0.00  0.00     0.143 HD
BRANCH  33  35
ATOM     35  S1  SGN d5702      64.379  40.874  33.191  0.00  0.00     0.183 S 
ATOM     36  O1S SGN d5702      64.958  42.171  32.900  0.00  0.00    -0.582 OA
ATOM     37  O2S SGN d5702      63.911  40.327  31.959  0.00  0.00    -0.582 OA
ATOM     38  O3S SGN d5702      65.272  39.981  33.903  0.00  0.00    -0.582 OA
ENDBRANCH  33  35
ENDBRANCH   2  33
BRANCH   6  39
ATOM     39  O1  SGN d5702      61.092  42.702  35.514  0.00  0.00    -0.369 OA
ATOM     40  H   SGN d5702      60.755  42.800  34.610  0.00  0.00     0.212 HD
ENDBRANCH   6  39
TORSDOF 14
ENDMDL
MODEL 84
REMARK VINA RESULT:      -3.3      2.494      3.145
REMARK  14 active torsions:
REMARK  status: ('A' for Active; 'I' for Inactive)
REMARK    1  A    between atoms: C5_1  and  C6_23 
REMARK    2  A    between atoms: S2_5  and  O6_7 
REMARK    3  A    between atoms: O1_6  and  C1_35 
REMARK    4  A    between atoms: O6_7  and  C6_21 
REMARK    5  A    between atoms: O2_9  and  C2_28 
REMARK    6  A    between atoms: O2_9  and  S_13 
REMARK    7  A    between atoms: C3_10  and  O3_20 
REMARK    8  A    between atoms: C1_11  and  O4_12 
REMARK    9  A    between atoms: O4_12  and  C4_19 
REMARK   10  A    between atoms: C2_15  and  N_29 
REMARK   11  A    between atoms: C5_17  and  C6_21 
REMARK   12  A    between atoms: C6_23  and  O61_33 
REMARK   13  A    between atoms: O3_24  and  C3_26 
REMARK   14  A    between atoms: S1_27  and  N_29 
ROOT
ATOM      1  O5  SGN d5702      62.497  40.985  39.546  0.00  0.00    -0.350 OA
ATOM      2  C2  SGN d5702      63.450  38.783  39.459  0.00  0.00     0.160 C 
ATOM      3  C5  SGN d5702      63.594  41.569  38.886  0.00  0.00     0.181 C 
ATOM      4  C4  SGN d5702      64.246  40.518  37.965  0.00  0.00     0.186 C 
ATOM      5  C3  SGN d5702      64.714  39.338  38.858  0.00  0.00     0.173 C 
ATOM      6  C1  SGN d5702      62.780  39.826  40.335  0.00  0.00     0.278 C 
ENDROOT
BRANCH   4   7
ATOM      7  O4  SGN d5702      65.355  41.188  37.306  0.00  0.00    -0.348 OA
BRANCH   7   8
ATOM      8  C1  IDU d1623      65.872  40.890  36.025  0.00  0.00     0.294 C 
ATOM      9  O5  IDU d1623      64.911  41.108  34.942  0.00  0.00    -0.343 OA
ATOM     10  C5  IDU d1623      65.397  40.679  33.620  0.00  0.00     0.224 C 
ATOM     11  C4  IDU d1623      66.653  41.491  33.266  0.00  0.00     0.077 C 
ATOM     12  C3  IDU d1623      67.718  41.297  34.357  0.00  0.00     0.156 C 
ATOM     13  C2  IDU d1623      67.107  41.744  35.694  0.00  0.00     0.228 C 
BRANCH  10  14
ATOM     14  C6  IDU d1623      64.365  40.918  32.552  0.00  0.00     0.170 C 
ATOM     15  O62 IDU d1623      63.803  42.023  32.517  0.00  0.00    -0.648 OA
BRANCH  14  16
ATOM     16  O61 IDU d1623      64.127  39.986  31.757  0.00  0.00    -0.774 OA
ENDBRANCH  14  16
ENDBRANCH  10  14
BRANCH  12  18
ATOM     18  O3  IDU d1623      68.080  39.946  34.421  0.00  0.00    -0.393 OA
ATOM     19  H   IDU d1623      68.831  39.785  33.828  0.00  0.00     0.210 HD
ENDBRANCH  12  18
BRANCH  13  20
ATOM     20  O2  IDU d1623      66.684  43.084  35.601  0.00  0.00    -0.244 OA
BRANCH  20  21
ATOM     21  S   IDU d1623      67.202  44.192  36.828  0.00  0.00     0.252 S 
ATOM     22  O3S IDU d1623      66.129  44.521  37.689  0.00  0.00    -0.572 OA
ATOM     23  O1S IDU d1623      67.764  45.322  36.152  0.00  0.00    -0.572 OA
ATOM     24  O2S IDU d1623      68.222  43.588  37.671  0.00  0.00    -0.572 OA
ENDBRANCH  20  21
ENDBRANCH  13  20
ENDBRANCH   7   8
ENDBRANCH   4   7
BRANCH   3  25
ATOM     25  C6  SGN d5702      63.073  42.746  38.121  0.00  0.00     0.227 C 
BRANCH  25  26
ATOM     26  O6  SGN d5702      61.995  42.202  37.375  0.00  0.00    -0.254 OA
BRANCH  26  27
ATOM     27  S2  SGN d5702      61.758  42.739  35.747  0.00  0.00     0.251 S 
ATOM     28  O4S SGN d5702      62.876  43.495  35.281  0.00  0.00    -0.572 OA
ATOM     29  O5S SGN d5702      60.583  43.562  35.706  0.00  0.00    -0.572 OA
ATOM     30  O6S SGN d5702      61.637  41.541  34.968  0.00  0.00    -0.572 OA
ENDBRANCH  26  27
ENDBRANCH  25  26
ENDBRANCH   3  25
BRANCH   5  31
ATOM     31  O3  SGN d5702      65.307  38.341  38.060  0.00  0.00    -0.391 OA
ATOM     32  H   SGN d5702      65.194  38.567  37.124  0.00  0.00     0.210 HD
ENDBRANCH   5  31
BRANCH   2  33
ATOM     33  N   SGN d5702      63.746  37.658  40.283  0.00  0.00    -0.189 NA
ATOM     34  H   SGN d5702      63.277  37.775  41.181  0.00  0.00     0.143 HD
BRANCH  33  35
ATOM     35  S1  SGN d5702      63.206  36.143  39.551  0.00  0.00     0.183 S 
ATOM     36  O1S SGN d5702      62.830  36.406  38.176  0.00  0.00    -0.582 OA
ATOM     37  O2S SGN d5702      62.040  35.691  40.237  0.00  0.00    -0.582 OA
ATOM     38  O3S SGN d5702      64.329  35.235  39.686  0.00  0.00    -0.582 OA
ENDBRANCH  33  35
ENDBRANCH   2  33
BRANCH   6  39
ATOM     39  O1  SGN d5702      63.557  40.170  41.457  0.00  0.00    -0.369 OA
ATOM     40  H   SGN d5702      63.311  39.605  42.206  0.00  0.00     0.212 HD
ENDBRANCH   6  39
TORSDOF 14
ENDMDL
MODEL 85
REMARK VINA RESULT:      -3.3      4.296      7.604
REMARK  14 active torsions:
REMARK  status: ('A' for Active; 'I' for Inactive)
REMARK    1  A    between atoms: C5_1  and  C6_23 
REMARK    2  A    between atoms: S2_5  and  O6_7 
REMARK    3  A    between atoms: O1_6  and  C1_35 
REMARK    4  A    between atoms: O6_7  and  C6_21 
REMARK    5  A    between atoms: O2_9  and  C2_28 
REMARK    6  A    between atoms: O2_9  and  S_13 
REMARK    7  A    between atoms: C3_10  and  O3_20 
REMARK    8  A    between atoms: C1_11  and  O4_12 
REMARK    9  A    between atoms: O4_12  and  C4_19 
REMARK   10  A    between atoms: C2_15  and  N_29 
REMARK   11  A    between atoms: C5_17  and  C6_21 
REMARK   12  A    between atoms: C6_23  and  O61_33 
REMARK   13  A    between atoms: O3_24  and  C3_26 
REMARK   14  A    between atoms: S1_27  and  N_29 
ROOT
ATOM      1  O5  SGN d5702      62.089  44.377  37.217  0.00  0.00    -0.350 OA
ATOM      2  C2  SGN d5702      61.976  45.380  39.395  0.00  0.00     0.160 C 
ATOM      3  C5  SGN d5702      63.322  43.755  37.483  0.00  0.00     0.181 C 
ATOM      4  C4  SGN d5702      63.435  43.486  38.997  0.00  0.00     0.186 C 
ATOM      5  C3  SGN d5702      63.348  44.854  39.725  0.00  0.00     0.173 C 
ATOM      6  C1  SGN d5702      61.844  45.609  37.901  0.00  0.00     0.278 C 
ENDROOT
BRANCH   4   7
ATOM      7  O4  SGN d5702      64.718  42.831  39.199  0.00  0.00    -0.348 OA
BRANCH   7   8
ATOM      8  C1  IDU d1623      64.955  41.674  39.974  0.00  0.00     0.294 C 
ATOM      9  O5  IDU d1623      64.305  40.473  39.444  0.00  0.00    -0.343 OA
ATOM     10  C5  IDU d1623      64.440  39.292  40.312  0.00  0.00     0.224 C 
ATOM     11  C4  IDU d1623      65.932  38.956  40.464  0.00  0.00     0.077 C 
ATOM     12  C3  IDU d1623      66.680  40.171  41.034  0.00  0.00     0.156 C 
ATOM     13  C2  IDU d1623      66.454  41.351  40.076  0.00  0.00     0.228 C 
BRANCH  10  14
ATOM     14  C6  IDU d1623      63.745  38.095  39.721  0.00  0.00     0.170 C 
ATOM     15  O62 IDU d1623      64.299  37.500  38.785  0.00  0.00    -0.648 OA
BRANCH  14  16
ATOM     16  O61 IDU d1623      62.644  37.765  40.207  0.00  0.00    -0.774 OA
ENDBRANCH  14  16
ENDBRANCH  10  14
BRANCH  12  18
ATOM     18  O3  IDU d1623      66.174  40.479  42.303  0.00  0.00    -0.393 OA
ATOM     19  H   IDU d1623      65.659  39.727  42.636  0.00  0.00     0.210 HD
ENDBRANCH  12  18
BRANCH  13  20
ATOM     20  O2  IDU d1623      66.905  41.011  38.786  0.00  0.00    -0.244 OA
BRANCH  20  21
ATOM     21  S   IDU d1623      68.109  42.016  38.050  0.00  0.00     0.252 S 
ATOM     22  O3S IDU d1623      68.934  42.610  39.034  0.00  0.00    -0.572 OA
ATOM     23  O1S IDU d1623      67.412  42.965  37.235  0.00  0.00    -0.572 OA
ATOM     24  O2S IDU d1623      68.995  41.228  37.207  0.00  0.00    -0.572 OA
ENDBRANCH  20  21
ENDBRANCH  13  20
ENDBRANCH   7   8
ENDBRANCH   4   7
BRANCH   3  25
ATOM     25  C6  SGN d5702      63.362  42.492  36.680  0.00  0.00     0.227 C 
BRANCH  25  26
ATOM     26  O6  SGN d5702      62.149  41.842  37.028  0.00  0.00    -0.254 OA
BRANCH  26  27
ATOM     27  S2  SGN d5702      61.233  41.071  35.779  0.00  0.00     0.251 S 
ATOM     28  O4S SGN d5702      60.091  41.846  35.418  0.00  0.00    -0.572 OA
ATOM     29  O5S SGN d5702      60.800  39.789  36.258  0.00  0.00    -0.572 OA
ATOM     30  O6S SGN d5702      62.123  40.984  34.658  0.00  0.00    -0.572 OA
ENDBRANCH  26  27
ENDBRANCH  25  26
ENDBRANCH   3  25
BRANCH   5  31
ATOM     31  O3  SGN d5702      63.433  44.661  41.116  0.00  0.00    -0.391 OA
ATOM     32  H   SGN d5702      64.303  44.953  41.431  0.00  0.00     0.210 HD
ENDBRANCH   5  31
BRANCH   2  33
ATOM     33  N   SGN d5702      61.758  46.632  40.042  0.00  0.00    -0.189 NA
ATOM     34  H   SGN d5702      61.342  47.281  39.373  0.00  0.00     0.143 HD
BRANCH  33  35
ATOM     35  S1  SGN d5702      60.679  46.478  41.433  0.00  0.00     0.183 S 
ATOM     36  O1S SGN d5702      60.416  45.070  41.656  0.00  0.00    -0.582 OA
ATOM     37  O2S SGN d5702      59.435  47.103  41.120  0.00  0.00    -0.582 OA
ATOM     38  O3S SGN d5702      61.376  47.125  42.528  0.00  0.00    -0.582 OA
ENDBRANCH  33  35
ENDBRANCH   2  33
BRANCH   6  39
ATOM     39  O1  SGN d5702      62.706  46.617  37.429  0.00  0.00    -0.369 OA
ATOM     40  H   SGN d5702      63.296  46.898  38.145  0.00  0.00     0.212 HD
ENDBRANCH   6  39
TORSDOF 14
ENDMDL
MODEL 86
REMARK VINA RESULT:      -3.3      3.350      5.451
REMARK  14 active torsions:
REMARK  status: ('A' for Active; 'I' for Inactive)
REMARK    1  A    between atoms: C5_1  and  C6_23 
REMARK    2  A    between atoms: S2_5  and  O6_7 
REMARK    3  A    between atoms: O1_6  and  C1_35 
REMARK    4  A    between atoms: O6_7  and  C6_21 
REMARK    5  A    between atoms: O2_9  and  C2_28 
REMARK    6  A    between atoms: O2_9  and  S_13 
REMARK    7  A    between atoms: C3_10  and  O3_20 
REMARK    8  A    between atoms: C1_11  and  O4_12 
REMARK    9  A    between atoms: O4_12  and  C4_19 
REMARK   10  A    between atoms: C2_15  and  N_29 
REMARK   11  A    between atoms: C5_17  and  C6_21 
REMARK   12  A    between atoms: C6_23  and  O61_33 
REMARK   13  A    between atoms: O3_24  and  C3_26 
REMARK   14  A    between atoms: S1_27  and  N_29 
ROOT
ATOM      1  O5  SGN d5702      61.283  44.468  37.474  0.00  0.00    -0.350 OA
ATOM      2  C2  SGN d5702      62.459  44.253  39.555  0.00  0.00     0.160 C 
ATOM      3  C5  SGN d5702      62.398  44.070  36.714  0.00  0.00     0.181 C 
ATOM      4  C4  SGN d5702      63.283  43.138  37.566  0.00  0.00     0.186 C 
ATOM      5  C3  SGN d5702      63.734  43.936  38.819  0.00  0.00     0.173 C 
ATOM      6  C1  SGN d5702      61.565  45.137  38.706  0.00  0.00     0.278 C 
ENDROOT
BRANCH   4   7
ATOM      7  O4  SGN d5702      64.402  42.754  36.721  0.00  0.00    -0.348 OA
BRANCH   7   8
ATOM      8  C1  IDU d1623      65.266  41.655  36.923  0.00  0.00     0.294 C 
ATOM      9  O5  IDU d1623      64.572  40.366  36.962  0.00  0.00    -0.343 OA
ATOM     10  C5  IDU d1623      65.446  39.231  37.300  0.00  0.00     0.224 C 
ATOM     11  C4  IDU d1623      66.540  39.110  36.227  0.00  0.00     0.077 C 
ATOM     12  C3  IDU d1623      67.325  40.429  36.140  0.00  0.00     0.156 C 
ATOM     13  C2  IDU d1623      66.325  41.549  35.814  0.00  0.00     0.228 C 
BRANCH  10  14
ATOM     14  C6  IDU d1623      64.676  37.938  37.335  0.00  0.00     0.170 C 
ATOM     15  O62 IDU d1623      63.521  37.956  37.786  0.00  0.00    -0.648 OA
BRANCH  14  16
ATOM     16  O61 IDU d1623      65.245  36.912  36.908  0.00  0.00    -0.774 OA
ENDBRANCH  14  16
ENDBRANCH  10  14
BRANCH  12  18
ATOM     18  O3  IDU d1623      67.949  40.683  37.368  0.00  0.00    -0.393 OA
ATOM     19  H   IDU d1623      68.819  40.254  37.383  0.00  0.00     0.210 HD
ENDBRANCH  12  18
BRANCH  13  20
ATOM     20  O2  IDU d1623      65.654  41.254  34.612  0.00  0.00    -0.244 OA
BRANCH  20  21
ATOM     21  S   IDU d1623      65.749  42.403  33.319  0.00  0.00     0.252 S 
ATOM     22  O3S IDU d1623      65.540  41.770  32.071  0.00  0.00    -0.572 OA
ATOM     23  O1S IDU d1623      67.025  43.044  33.431  0.00  0.00    -0.572 OA
ATOM     24  O2S IDU d1623      64.702  43.406  33.440  0.00  0.00    -0.572 OA
ENDBRANCH  20  21
ENDBRANCH  13  20
ENDBRANCH   7   8
ENDBRANCH   4   7
BRANCH   3  25
ATOM     25  C6  SGN d5702      61.877  43.388  35.487  0.00  0.00     0.227 C 
BRANCH  25  26
ATOM     26  O6  SGN d5702      60.996  42.404  36.007  0.00  0.00    -0.254 OA
BRANCH  26  27
ATOM     27  S2  SGN d5702      61.184  40.764  35.488  0.00  0.00     0.251 S 
ATOM     28  O4S SGN d5702      60.047  40.319  34.750  0.00  0.00    -0.572 OA
ATOM     29  O5S SGN d5702      61.347  39.936  36.648  0.00  0.00    -0.572 OA
ATOM     30  O6S SGN d5702      62.334  40.770  34.632  0.00  0.00    -0.572 OA
ENDBRANCH  26  27
ENDBRANCH  25  26
ENDBRANCH   3  25
BRANCH   5  31
ATOM     31  O3  SGN d5702      64.537  43.122  39.640  0.00  0.00    -0.391 OA
ATOM     32  H   SGN d5702      63.974  42.500  40.127  0.00  0.00     0.210 HD
ENDBRANCH   5  31
BRANCH   2  33
ATOM     33  N   SGN d5702      62.746  44.963  40.758  0.00  0.00    -0.189 NA
ATOM     34  H   SGN d5702      62.227  45.841  40.754  0.00  0.00     0.143 HD
BRANCH  33  35
ATOM     35  S1  SGN d5702      62.293  44.040  42.194  0.00  0.00     0.183 S 
ATOM     36  O1S SGN d5702      63.061  42.811  42.211  0.00  0.00    -0.582 OA
ATOM     37  O2S SGN d5702      60.915  43.684  42.096  0.00  0.00    -0.582 OA
ATOM     38  O3S SGN d5702      62.570  44.919  43.314  0.00  0.00    -0.582 OA
ENDBRANCH  33  35
ENDBRANCH   2  33
BRANCH   6  39
ATOM     39  O1  SGN d5702      62.130  46.403  38.461  0.00  0.00    -0.369 OA
ATOM     40  H   SGN d5702      62.784  46.333  37.749  0.00  0.00     0.212 HD
ENDBRANCH   6  39
TORSDOF 14
ENDMDL
MODEL 87
REMARK VINA RESULT:      -3.3      3.532      9.314
REMARK  14 active torsions:
REMARK  status: ('A' for Active; 'I' for Inactive)
REMARK    1  A    between atoms: C5_1  and  C6_23 
REMARK    2  A    between atoms: S2_5  and  O6_7 
REMARK    3  A    between atoms: O1_6  and  C1_35 
REMARK    4  A    between atoms: O6_7  and  C6_21 
REMARK    5  A    between atoms: O2_9  and  C2_28 
REMARK    6  A    between atoms: O2_9  and  S_13 
REMARK    7  A    between atoms: C3_10  and  O3_20 
REMARK    8  A    between atoms: C1_11  and  O4_12 
REMARK    9  A    between atoms: O4_12  and  C4_19 
REMARK   10  A    between atoms: C2_15  and  N_29 
REMARK   11  A    between atoms: C5_17  and  C6_21 
REMARK   12  A    between atoms: C6_23  and  O61_33 
REMARK   13  A    between atoms: O3_24  and  C3_26 
REMARK   14  A    between atoms: S1_27  and  N_29 
ROOT
ATOM      1  O5  SGN d5702      62.086  39.718  36.647  0.00  0.00    -0.350 OA
ATOM      2  C2  SGN d5702      62.378  42.003  37.323  0.00  0.00     0.160 C 
ATOM      3  C5  SGN d5702      62.733  39.216  37.792  0.00  0.00     0.181 C 
ATOM      4  C4  SGN d5702      62.552  40.216  38.952  0.00  0.00     0.186 C 
ATOM      5  C3  SGN d5702      63.188  41.563  38.514  0.00  0.00     0.173 C 
ATOM      6  C1  SGN d5702      62.519  41.002  36.190  0.00  0.00     0.278 C 
ENDROOT
BRANCH   4   7
ATOM      7  O4  SGN d5702      63.227  39.632  40.100  0.00  0.00    -0.348 OA
BRANCH   7   8
ATOM      8  C1  IDU d1623      62.736  39.583  41.424  0.00  0.00     0.294 C 
ATOM      9  O5  IDU d1623      61.661  38.607  41.613  0.00  0.00    -0.343 OA
ATOM     10  C5  IDU d1623      61.057  38.639  42.954  0.00  0.00     0.224 C 
ATOM     11  C4  IDU d1623      62.141  38.309  43.994  0.00  0.00     0.077 C 
ATOM     12  C3  IDU d1623      63.301  39.308  43.866  0.00  0.00     0.156 C 
ATOM     13  C2  IDU d1623      63.840  39.218  42.430  0.00  0.00     0.228 C 
BRANCH  10  14
ATOM     14  C6  IDU d1623      59.954  37.624  43.084  0.00  0.00     0.170 C 
ATOM     15  O62 IDU d1623      58.785  38.005  42.918  0.00  0.00    -0.648 OA
BRANCH  14  16
ATOM     16  O61 IDU d1623      60.276  36.449  43.355  0.00  0.00    -0.774 OA
ENDBRANCH  14  16
ENDBRANCH  10  14
BRANCH  12  18
ATOM     18  O3  IDU d1623      62.834  40.603  44.124  0.00  0.00    -0.393 OA
ATOM     19  H   IDU d1623      62.026  40.763  43.612  0.00  0.00     0.210 HD
ENDBRANCH  12  18
BRANCH  13  20
ATOM     20  O2  IDU d1623      64.247  37.899  42.154  0.00  0.00    -0.244 OA
BRANCH  20  21
ATOM     21  S   IDU d1623      65.854  37.646  41.559  0.00  0.00     0.252 S 
ATOM     22  O3S IDU d1623      66.341  36.378  41.958  0.00  0.00    -0.572 OA
ATOM     23  O1S IDU d1623      66.646  38.740  42.033  0.00  0.00    -0.572 OA
ATOM     24  O2S IDU d1623      65.872  37.642  40.104  0.00  0.00    -0.572 OA
ENDBRANCH  20  21
ENDBRANCH  13  20
ENDBRANCH   7   8
ENDBRANCH   4   7
BRANCH   3  25
ATOM     25  C6  SGN d5702      62.124  37.883  38.095  0.00  0.00     0.227 C 
BRANCH  25  26
ATOM     26  O6  SGN d5702      63.236  37.000  38.069  0.00  0.00    -0.254 OA
BRANCH  26  27
ATOM     27  S2  SGN d5702      62.992  35.347  38.519  0.00  0.00     0.251 S 
ATOM     28  O4S SGN d5702      63.787  34.993  39.650  0.00  0.00    -0.572 OA
ATOM     29  O5S SGN d5702      63.358  34.515  37.407  0.00  0.00    -0.572 OA
ATOM     30  O6S SGN d5702      61.604  35.250  38.864  0.00  0.00    -0.572 OA
ENDBRANCH  26  27
ENDBRANCH  25  26
ENDBRANCH   3  25
BRANCH   5  31
ATOM     31  O3  SGN d5702      63.037  42.517  39.537  0.00  0.00    -0.391 OA
ATOM     32  H   SGN d5702      63.868  42.596  40.030  0.00  0.00     0.210 HD
ENDBRANCH   5  31
BRANCH   2  33
ATOM     33  N   SGN d5702      62.847  43.261  36.843  0.00  0.00    -0.189 NA
ATOM     34  H   SGN d5702      63.029  43.185  35.842  0.00  0.00     0.143 HD
BRANCH  33  35
ATOM     35  S1  SGN d5702      61.670  44.551  37.113  0.00  0.00     0.183 S 
ATOM     36  O1S SGN d5702      61.288  44.539  38.511  0.00  0.00    -0.582 OA
ATOM     37  O2S SGN d5702      60.500  44.273  36.345  0.00  0.00    -0.582 OA
ATOM     38  O3S SGN d5702      62.341  45.769  36.700  0.00  0.00    -0.582 OA
ENDBRANCH  33  35
ENDBRANCH   2  33
BRANCH   6  39
ATOM     39  O1  SGN d5702      63.832  40.932  35.689  0.00  0.00    -0.369 OA
ATOM     40  H   SGN d5702      63.805  40.820  34.726  0.00  0.00     0.212 HD
ENDBRANCH   6  39
TORSDOF 14
ENDMDL
MODEL 88
REMARK VINA RESULT:      -3.3      2.637      6.035
REMARK  14 active torsions:
REMARK  status: ('A' for Active; 'I' for Inactive)
REMARK    1  A    between atoms: C5_1  and  C6_23 
REMARK    2  A    between atoms: S2_5  and  O6_7 
REMARK    3  A    between atoms: O1_6  and  C1_35 
REMARK    4  A    between atoms: O6_7  and  C6_21 
REMARK    5  A    between atoms: O2_9  and  C2_28 
REMARK    6  A    between atoms: O2_9  and  S_13 
REMARK    7  A    between atoms: C3_10  and  O3_20 
REMARK    8  A    between atoms: C1_11  and  O4_12 
REMARK    9  A    between atoms: O4_12  and  C4_19 
REMARK   10  A    between atoms: C2_15  and  N_29 
REMARK   11  A    between atoms: C5_17  and  C6_21 
REMARK   12  A    between atoms: C6_23  and  O61_33 
REMARK   13  A    between atoms: O3_24  and  C3_26 
REMARK   14  A    between atoms: S1_27  and  N_29 
ROOT
ATOM      1  O5  SGN d5702      63.945  40.815  38.230  0.00  0.00    -0.350 OA
ATOM      2  C2  SGN d5702      62.238  41.965  36.995  0.00  0.00     0.160 C 
ATOM      3  C5  SGN d5702      64.367  40.077  37.109  0.00  0.00     0.181 C 
ATOM      4  C4  SGN d5702      64.071  40.887  35.831  0.00  0.00     0.186 C 
ATOM      5  C3  SGN d5702      62.539  41.134  35.776  0.00  0.00     0.173 C 
ATOM      6  C1  SGN d5702      62.565  41.188  38.257  0.00  0.00     0.278 C 
ENDROOT
BRANCH   4   7
ATOM      7  O4  SGN d5702      64.543  40.078  34.719  0.00  0.00    -0.348 OA
BRANCH   7   8
ATOM      8  C1  IDU d1623      64.674  40.496  33.376  0.00  0.00     0.294 C 
ATOM      9  O5  IDU d1623      65.645  41.577  33.193  0.00  0.00    -0.343 OA
ATOM     10  C5  IDU d1623      65.695  42.106  31.821  0.00  0.00     0.224 C 
ATOM     11  C4  IDU d1623      66.112  40.973  30.868  0.00  0.00     0.077 C 
ATOM     12  C3  IDU d1623      65.123  39.803  30.994  0.00  0.00     0.156 C 
ATOM     13  C2  IDU d1623      65.123  39.346  32.460  0.00  0.00     0.228 C 
BRANCH  10  14
ATOM     14  C6  IDU d1623      66.701  43.219  31.697  0.00  0.00     0.170 C 
ATOM     15  O62 IDU d1623      66.354  44.259  31.116  0.00  0.00    -0.648 OA
BRANCH  14  16
ATOM     16  O61 IDU d1623      67.833  43.034  32.187  0.00  0.00    -0.774 OA
ENDBRANCH  14  16
ENDBRANCH  10  14
BRANCH  12  18
ATOM     18  O3  IDU d1623      63.843  40.232  30.623  0.00  0.00    -0.393 OA
ATOM     19  H   IDU d1623      63.235  39.475  30.628  0.00  0.00     0.210 HD
ENDBRANCH  12  18
BRANCH  13  20
ATOM     20  O2  IDU d1623      66.427  38.980  32.846  0.00  0.00    -0.244 OA
BRANCH  20  21
ATOM     21  S   IDU d1623      66.692  37.357  33.393  0.00  0.00     0.252 S 
ATOM     22  O3S IDU d1623      65.843  36.455  32.710  0.00  0.00    -0.572 OA
ATOM     23  O1S IDU d1623      66.501  37.364  34.812  0.00  0.00    -0.572 OA
ATOM     24  O2S IDU d1623      68.051  36.929  33.099  0.00  0.00    -0.572 OA
ENDBRANCH  20  21
ENDBRANCH  13  20
ENDBRANCH   7   8
ENDBRANCH   4   7
BRANCH   3  25
ATOM     25  C6  SGN d5702      65.829  39.808  37.282  0.00  0.00     0.227 C 
BRANCH  25  26
ATOM     26  O6  SGN d5702      66.433  41.048  36.948  0.00  0.00    -0.254 OA
BRANCH  26  27
ATOM     27  S2  SGN d5702      68.113  41.066  36.530  0.00  0.00     0.251 S 
ATOM     28  O4S SGN d5702      68.821  40.011  37.179  0.00  0.00    -0.572 OA
ATOM     29  O5S SGN d5702      68.669  42.326  36.936  0.00  0.00    -0.572 OA
ATOM     30  O6S SGN d5702      68.151  40.863  35.111  0.00  0.00    -0.572 OA
ENDBRANCH  26  27
ENDBRANCH  25  26
ENDBRANCH   3  25
BRANCH   5  31
ATOM     31  O3  SGN d5702      62.217  41.884  34.630  0.00  0.00    -0.391 OA
ATOM     32  H   SGN d5702      63.024  42.281  34.266  0.00  0.00     0.210 HD
ENDBRANCH   5  31
BRANCH   2  33
ATOM     33  N   SGN d5702      60.850  42.291  37.040  0.00  0.00    -0.189 NA
ATOM     34  H   SGN d5702      60.534  42.251  38.009  0.00  0.00     0.143 HD
BRANCH  33  35
ATOM     35  S1  SGN d5702      60.530  43.907  36.401  0.00  0.00     0.183 S 
ATOM     36  O1S SGN d5702      59.939  43.771  35.085  0.00  0.00    -0.582 OA
ATOM     37  O2S SGN d5702      61.771  44.593  36.246  0.00  0.00    -0.582 OA
ATOM     38  O3S SGN d5702      59.656  44.534  37.374  0.00  0.00    -0.582 OA
ENDBRANCH  33  35
ENDBRANCH   2  33
BRANCH   6  39
ATOM     39  O1  SGN d5702      61.750  40.052  38.421  0.00  0.00    -0.369 OA
ATOM     40  H   SGN d5702      61.248  39.894  37.606  0.00  0.00     0.212 HD
ENDBRANCH   6  39
TORSDOF 14
ENDMDL
MODEL 89
REMARK VINA RESULT:      -3.3      2.921      7.779
REMARK  14 active torsions:
REMARK  status: ('A' for Active; 'I' for Inactive)
REMARK    1  A    between atoms: C5_1  and  C6_23 
REMARK    2  A    between atoms: S2_5  and  O6_7 
REMARK    3  A    between atoms: O1_6  and  C1_35 
REMARK    4  A    between atoms: O6_7  and  C6_21 
REMARK    5  A    between atoms: O2_9  and  C2_28 
REMARK    6  A    between atoms: O2_9  and  S_13 
REMARK    7  A    between atoms: C3_10  and  O3_20 
REMARK    8  A    between atoms: C1_11  and  O4_12 
REMARK    9  A    between atoms: O4_12  and  C4_19 
REMARK   10  A    between atoms: C2_15  and  N_29 
REMARK   11  A    between atoms: C5_17  and  C6_21 
REMARK   12  A    between atoms: C6_23  and  O61_33 
REMARK   13  A    between atoms: O3_24  and  C3_26 
REMARK   14  A    between atoms: S1_27  and  N_29 
ROOT
ATOM      1  O5  SGN d5702      62.168  41.852  37.108  0.00  0.00    -0.350 OA
ATOM      2  C2  SGN d5702      63.453  41.848  35.080  0.00  0.00     0.160 C 
ATOM      3  C5  SGN d5702      62.488  40.514  37.404  0.00  0.00     0.181 C 
ATOM      4  C4  SGN d5702      63.860  40.176  36.787  0.00  0.00     0.186 C 
ATOM      5  C3  SGN d5702      63.748  40.382  35.253  0.00  0.00     0.173 C 
ATOM      6  C1  SGN d5702      62.122  42.197  35.721  0.00  0.00     0.278 C 
ENDROOT
BRANCH   4   7
ATOM      7  O4  SGN d5702      64.135  38.793  37.142  0.00  0.00    -0.348 OA
BRANCH   7   8
ATOM      8  C1  IDU d1623      65.324  38.297  37.722  0.00  0.00     0.294 C 
ATOM      9  O5  IDU d1623      65.623  38.881  39.031  0.00  0.00    -0.343 OA
ATOM     10  C5  IDU d1623      66.923  38.468  39.584  0.00  0.00     0.224 C 
ATOM     11  C4  IDU d1623      66.920  36.942  39.772  0.00  0.00     0.077 C 
ATOM     12  C3  IDU d1623      66.627  36.257  38.428  0.00  0.00     0.156 C 
ATOM     13  C2  IDU d1623      65.270  36.774  37.924  0.00  0.00     0.228 C 
BRANCH  10  14
ATOM     14  C6  IDU d1623      67.179  39.107  40.922  0.00  0.00     0.170 C 
ATOM     15  O62 IDU d1623      66.424  40.021  41.288  0.00  0.00    -0.648 OA
BRANCH  14  16
ATOM     16  O61 IDU d1623      68.141  38.682  41.593  0.00  0.00    -0.774 OA
ENDBRANCH  14  16
ENDBRANCH  10  14
BRANCH  12  18
ATOM     18  O3  IDU d1623      67.635  36.578  37.510  0.00  0.00    -0.393 OA
ATOM     19  H   IDU d1623      67.239  36.738  36.639  0.00  0.00     0.210 HD
ENDBRANCH  12  18
BRANCH  13  20
ATOM     20  O2  IDU d1623      64.273  36.507  38.881  0.00  0.00    -0.244 OA
BRANCH  20  21
ATOM     21  S   IDU d1623      63.194  35.184  38.590  0.00  0.00     0.252 S 
ATOM     22  O3S IDU d1623      61.848  35.617  38.638  0.00  0.00    -0.572 OA
ATOM     23  O1S IDU d1623      63.507  34.176  39.558  0.00  0.00    -0.572 OA
ATOM     24  O2S IDU d1623      63.392  34.639  37.256  0.00  0.00    -0.572 OA
ENDBRANCH  20  21
ENDBRANCH  13  20
ENDBRANCH   7   8
ENDBRANCH   4   7
BRANCH   3  25
ATOM     25  C6  SGN d5702      62.490  40.380  38.895  0.00  0.00     0.227 C 
BRANCH  25  26
ATOM     26  O6  SGN d5702      63.452  41.338  39.310  0.00  0.00    -0.254 OA
BRANCH  26  27
ATOM     27  S2  SGN d5702      63.073  42.367  40.649  0.00  0.00     0.251 S 
ATOM     28  O4S SGN d5702      62.341  43.518  40.229  0.00  0.00    -0.572 OA
ATOM     29  O5S SGN d5702      64.301  42.787  41.261  0.00  0.00    -0.572 OA
ATOM     30  O6S SGN d5702      62.253  41.572  41.515  0.00  0.00    -0.572 OA
ENDBRANCH  26  27
ENDBRANCH  25  26
ENDBRANCH   3  25
BRANCH   5  31
ATOM     31  O3  SGN d5702      64.983  40.097  34.641  0.00  0.00    -0.391 OA
ATOM     32  H   SGN d5702      65.677  40.052  35.318  0.00  0.00     0.210 HD
ENDBRANCH   5  31
BRANCH   2  33
ATOM     33  N   SGN d5702      63.361  42.175  33.695  0.00  0.00    -0.189 NA
ATOM     34  H   SGN d5702      62.388  42.086  33.400  0.00  0.00     0.143 HD
BRANCH  33  35
ATOM     35  S1  SGN d5702      63.910  43.821  33.367  0.00  0.00     0.183 S 
ATOM     36  O1S SGN d5702      62.750  44.644  33.088  0.00  0.00    -0.582 OA
ATOM     37  O2S SGN d5702      64.720  43.809  32.193  0.00  0.00    -0.582 OA
ATOM     38  O3S SGN d5702      64.640  44.222  34.554  0.00  0.00    -0.582 OA
ENDBRANCH  33  35
ENDBRANCH   2  33
BRANCH   6  39
ATOM     39  O1  SGN d5702      61.034  41.565  35.090  0.00  0.00    -0.369 OA
ATOM     40  H   SGN d5702      61.233  41.445  34.148  0.00  0.00     0.212 HD
ENDBRANCH   6  39
TORSDOF 14
ENDMDL
MODEL 90
REMARK VINA RESULT:      -3.3      2.671      6.702
REMARK  14 active torsions:
REMARK  status: ('A' for Active; 'I' for Inactive)
REMARK    1  A    between atoms: C5_1  and  C6_23 
REMARK    2  A    between atoms: S2_5  and  O6_7 
REMARK    3  A    between atoms: O1_6  and  C1_35 
REMARK    4  A    between atoms: O6_7  and  C6_21 
REMARK    5  A    between atoms: O2_9  and  C2_28 
REMARK    6  A    between atoms: O2_9  and  S_13 
REMARK    7  A    between atoms: C3_10  and  O3_20 
REMARK    8  A    between atoms: C1_11  and  O4_12 
REMARK    9  A    between atoms: O4_12  and  C4_19 
REMARK   10  A    between atoms: C2_15  and  N_29 
REMARK   11  A    between atoms: C5_17  and  C6_21 
REMARK   12  A    between atoms: C6_23  and  O61_33 
REMARK   13  A    between atoms: O3_24  and  C3_26 
REMARK   14  A    between atoms: S1_27  and  N_29 
ROOT
ATOM      1  O5  SGN d5702      65.191  42.705  31.995  0.00  0.00    -0.350 OA
ATOM      2  C2  SGN d5702      65.978  40.456  32.289  0.00  0.00     0.160 C 
ATOM      3  C5  SGN d5702      64.140  42.539  32.915  0.00  0.00     0.181 C 
ATOM      4  C4  SGN d5702      64.544  41.476  33.956  0.00  0.00     0.186 C 
ATOM      5  C3  SGN d5702      64.813  40.151  33.194  0.00  0.00     0.173 C 
ATOM      6  C1  SGN d5702      65.601  41.531  31.287  0.00  0.00     0.278 C 
ENDROOT
BRANCH   4   7
ATOM      7  O4  SGN d5702      63.426  41.366  34.880  0.00  0.00    -0.348 OA
BRANCH   7   8
ATOM      8  C1  IDU d1623      63.453  40.773  36.161  0.00  0.00     0.294 C 
ATOM      9  O5  IDU d1623      64.379  41.428  37.088  0.00  0.00    -0.343 OA
ATOM     10  C5  IDU d1623      64.510  40.741  38.383  0.00  0.00     0.224 C 
ATOM     11  C4  IDU d1623      63.136  40.718  39.074  0.00  0.00     0.077 C 
ATOM     12  C3  IDU d1623      62.111  40.026  38.161  0.00  0.00     0.156 C 
ATOM     13  C2  IDU d1623      62.071  40.798  36.833  0.00  0.00     0.228 C 
BRANCH  10  14
ATOM     14  C6  IDU d1623      65.479  41.453  39.287  0.00  0.00     0.170 C 
ATOM     15  O62 IDU d1623      66.427  40.804  39.756  0.00  0.00    -0.648 OA
BRANCH  14  16
ATOM     16  O61 IDU d1623      65.276  42.662  39.519  0.00  0.00    -0.774 OA
ENDBRANCH  14  16
ENDBRANCH  10  14
BRANCH  12  18
ATOM     18  O3  IDU d1623      62.505  38.701  37.936  0.00  0.00    -0.393 OA
ATOM     19  H   IDU d1623      63.039  38.391  38.684  0.00  0.00     0.210 HD
ENDBRANCH  12  18
BRANCH  13  20
ATOM     20  O2  IDU d1623      61.739  42.145  37.074  0.00  0.00    -0.244 OA
BRANCH  20  21
ATOM     21  S   IDU d1623      60.533  42.881  36.073  0.00  0.00     0.252 S 
ATOM     22  O3S IDU d1623      59.606  43.607  36.859  0.00  0.00    -0.572 OA
ATOM     23  O1S IDU d1623      59.935  41.830  35.306  0.00  0.00    -0.572 OA
ATOM     24  O2S IDU d1623      61.133  43.848  35.166  0.00  0.00    -0.572 OA
ENDBRANCH  20  21
ENDBRANCH  13  20
ENDBRANCH   7   8
ENDBRANCH   4   7
BRANCH   3  25
ATOM     25  C6  SGN d5702      63.886  43.875  33.541  0.00  0.00     0.227 C 
BRANCH  25  26
ATOM     26  O6  SGN d5702      65.103  44.575  33.327  0.00  0.00    -0.254 OA
BRANCH  26  27
ATOM     27  S2  SGN d5702      65.033  46.179  32.681  0.00  0.00     0.251 S 
ATOM     28  O4S SGN d5702      65.621  47.125  33.574  0.00  0.00    -0.572 OA
ATOM     29  O5S SGN d5702      63.657  46.524  32.468  0.00  0.00    -0.572 OA
ATOM     30  O6S SGN d5702      65.798  46.131  31.469  0.00  0.00    -0.572 OA
ENDBRANCH  26  27
ENDBRANCH  25  26
ENDBRANCH   3  25
BRANCH   5  31
ATOM     31  O3  SGN d5702      65.200  39.148  34.101  0.00  0.00    -0.391 OA
ATOM     32  H   SGN d5702      64.491  38.490  34.178  0.00  0.00     0.210 HD
ENDBRANCH   5  31
BRANCH   2  33
ATOM     33  N   SGN d5702      66.349  39.294  31.551  0.00  0.00    -0.189 NA
ATOM     34  H   SGN d5702      66.213  39.477  30.557  0.00  0.00     0.143 HD
BRANCH  33  35
ATOM     35  S1  SGN d5702      68.037  38.849  31.823  0.00  0.00     0.183 S 
ATOM     36  O1S SGN d5702      68.104  37.418  32.045  0.00  0.00    -0.582 OA
ATOM     37  O2S SGN d5702      68.495  39.490  33.012  0.00  0.00    -0.582 OA
ATOM     38  O3S SGN d5702      68.742  39.291  30.635  0.00  0.00    -0.582 OA
ENDBRANCH  33  35
ENDBRANCH   2  33
BRANCH   6  39
ATOM     39  O1  SGN d5702      64.592  41.114  30.398  0.00  0.00    -0.369 OA
ATOM     40  H   SGN d5702      64.595  40.146  30.338  0.00  0.00     0.212 HD
ENDBRANCH   6  39
TORSDOF 14
ENDMDL
MODEL 91
REMARK VINA RESULT:      -3.2      3.469      6.546
REMARK  14 active torsions:
REMARK  status: ('A' for Active; 'I' for Inactive)
REMARK    1  A    between atoms: C5_1  and  C6_23 
REMARK    2  A    between atoms: S2_5  and  O6_7 
REMARK    3  A    between atoms: O1_6  and  C1_35 
REMARK    4  A    between atoms: O6_7  and  C6_21 
REMARK    5  A    between atoms: O2_9  and  C2_28 
REMARK    6  A    between atoms: O2_9  and  S_13 
REMARK    7  A    between atoms: C3_10  and  O3_20 
REMARK    8  A    between atoms: C1_11  and  O4_12 
REMARK    9  A    between atoms: O4_12  and  C4_19 
REMARK   10  A    between atoms: C2_15  and  N_29 
REMARK   11  A    between atoms: C5_17  and  C6_21 
REMARK   12  A    between atoms: C6_23  and  O61_33 
REMARK   13  A    between atoms: O3_24  and  C3_26 
REMARK   14  A    between atoms: S1_27  and  N_29 
ROOT
ATOM      1  O5  SGN d5702      65.271  35.473  37.855  0.00  0.00    -0.350 OA
ATOM      2  C2  SGN d5702      63.426  35.251  39.376  0.00  0.00     0.160 C 
ATOM      3  C5  SGN d5702      64.789  36.684  37.325  0.00  0.00     0.181 C 
ATOM      4  C4  SGN d5702      63.953  37.407  38.401  0.00  0.00     0.186 C 
ATOM      5  C3  SGN d5702      62.774  36.474  38.786  0.00  0.00     0.173 C 
ATOM      6  C1  SGN d5702      64.283  34.556  38.334  0.00  0.00     0.278 C 
ENDROOT
BRANCH   4   7
ATOM      7  O4  SGN d5702      63.502  38.650  37.796  0.00  0.00    -0.348 OA
BRANCH   7   8
ATOM      8  C1  IDU d1623      63.580  39.938  38.371  0.00  0.00     0.294 C 
ATOM      9  O5  IDU d1623      64.951  40.380  38.630  0.00  0.00    -0.343 OA
ATOM     10  C5  IDU d1623      65.038  41.664  39.345  0.00  0.00     0.224 C 
ATOM     11  C4  IDU d1623      64.377  42.755  38.488  0.00  0.00     0.077 C 
ATOM     12  C3  IDU d1623      62.921  42.365  38.188  0.00  0.00     0.156 C 
ATOM     13  C2  IDU d1623      62.938  41.006  37.471  0.00  0.00     0.228 C 
BRANCH  10  14
ATOM     14  C6  IDU d1623      66.469  42.060  39.592  0.00  0.00     0.170 C 
ATOM     15  O62 IDU d1623      67.330  41.167  39.601  0.00  0.00    -0.648 OA
BRANCH  14  16
ATOM     16  O61 IDU d1623      66.712  43.270  39.775  0.00  0.00    -0.774 OA
ENDBRANCH  14  16
ENDBRANCH  10  14
BRANCH  12  18
ATOM     18  O3  IDU d1623      62.207  42.267  39.388  0.00  0.00    -0.393 OA
ATOM     19  H   IDU d1623      61.600  43.019  39.465  0.00  0.00     0.210 HD
ENDBRANCH  12  18
BRANCH  13  20
ATOM     20  O2  IDU d1623      63.713  41.095  36.299  0.00  0.00    -0.244 OA
BRANCH  20  21
ATOM     21  S   IDU d1623      62.900  41.419  34.804  0.00  0.00     0.252 S 
ATOM     22  O3S IDU d1623      61.547  41.009  34.872  0.00  0.00    -0.572 OA
ATOM     23  O1S IDU d1623      63.648  40.759  33.776  0.00  0.00    -0.572 OA
ATOM     24  O2S IDU d1623      62.873  42.847  34.529  0.00  0.00    -0.572 OA
ENDBRANCH  20  21
ENDBRANCH  13  20
ENDBRANCH   7   8
ENDBRANCH   4   7
BRANCH   3  25
ATOM     25  C6  SGN d5702      65.979  37.486  36.900  0.00  0.00     0.227 C 
BRANCH  25  26
ATOM     26  O6  SGN d5702      66.649  36.623  35.993  0.00  0.00    -0.254 OA
BRANCH  26  27
ATOM     27  S2  SGN d5702      66.838  37.134  34.350  0.00  0.00     0.251 S 
ATOM     28  O4S SGN d5702      66.607  38.535  34.211  0.00  0.00    -0.572 OA
ATOM     29  O5S SGN d5702      65.893  36.418  33.540  0.00  0.00    -0.572 OA
ATOM     30  O6S SGN d5702      68.202  36.841  34.019  0.00  0.00    -0.572 OA
ENDBRANCH  26  27
ENDBRANCH  25  26
ENDBRANCH   3  25
BRANCH   5  31
ATOM     31  O3  SGN d5702      61.986  37.085  39.778  0.00  0.00    -0.391 OA
ATOM     32  H   SGN d5702      61.687  36.415  40.412  0.00  0.00     0.210 HD
ENDBRANCH   5  31
BRANCH   2  33
ATOM     33  N   SGN d5702      62.435  34.321  39.806  0.00  0.00    -0.189 NA
ATOM     34  H   SGN d5702      62.584  33.434  39.323  0.00  0.00     0.143 HD
BRANCH  33  35
ATOM     35  S1  SGN d5702      62.504  34.041  41.549  0.00  0.00     0.183 S 
ATOM     36  O1S SGN d5702      63.881  33.772  41.916  0.00  0.00    -0.582 OA
ATOM     37  O2S SGN d5702      61.742  32.875  41.857  0.00  0.00    -0.582 OA
ATOM     38  O3S SGN d5702      61.963  35.245  42.149  0.00  0.00    -0.582 OA
ENDBRANCH  33  35
ENDBRANCH   2  33
BRANCH   6  39
ATOM     39  O1  SGN d5702      63.526  34.043  37.264  0.00  0.00    -0.369 OA
ATOM     40  H   SGN d5702      63.451  34.717  36.569  0.00  0.00     0.212 HD
ENDBRANCH   6  39
TORSDOF 14
ENDMDL
MODEL 92
REMARK VINA RESULT:      -3.2      3.465      8.157
REMARK  14 active torsions:
REMARK  status: ('A' for Active; 'I' for Inactive)
REMARK    1  A    between atoms: C5_1  and  C6_23 
REMARK    2  A    between atoms: S2_5  and  O6_7 
REMARK    3  A    between atoms: O1_6  and  C1_35 
REMARK    4  A    between atoms: O6_7  and  C6_21 
REMARK    5  A    between atoms: O2_9  and  C2_28 
REMARK    6  A    between atoms: O2_9  and  S_13 
REMARK    7  A    between atoms: C3_10  and  O3_20 
REMARK    8  A    between atoms: C1_11  and  O4_12 
REMARK    9  A    between atoms: O4_12  and  C4_19 
REMARK   10  A    between atoms: C2_15  and  N_29 
REMARK   11  A    between atoms: C5_17  and  C6_21 
REMARK   12  A    between atoms: C6_23  and  O61_33 
REMARK   13  A    between atoms: O3_24  and  C3_26 
REMARK   14  A    between atoms: S1_27  and  N_29 
ROOT
ATOM      1  O5  SGN d5702      63.032  44.421  38.253  0.00  0.00    -0.350 OA
ATOM      2  C2  SGN d5702      62.731  43.354  36.123  0.00  0.00     0.160 C 
ATOM      3  C5  SGN d5702      62.531  43.316  38.964  0.00  0.00     0.181 C 
ATOM      4  C4  SGN d5702      62.798  42.031  38.154  0.00  0.00     0.186 C 
ATOM      5  C3  SGN d5702      62.071  42.176  36.790  0.00  0.00     0.173 C 
ATOM      6  C1  SGN d5702      62.507  44.615  36.937  0.00  0.00     0.278 C 
ENDROOT
BRANCH   4   7
ATOM      7  O4  SGN d5702      62.272  40.933  38.949  0.00  0.00    -0.348 OA
BRANCH   7   8
ATOM      8  C1  IDU d1623      62.712  39.591  38.917  0.00  0.00     0.294 C 
ATOM      9  O5  IDU d1623      64.157  39.445  39.099  0.00  0.00    -0.343 OA
ATOM     10  C5  IDU d1623      64.641  38.065  38.940  0.00  0.00     0.224 C 
ATOM     11  C4  IDU d1623      63.971  37.179  40.003  0.00  0.00     0.077 C 
ATOM     12  C3  IDU d1623      62.444  37.269  39.862  0.00  0.00     0.156 C 
ATOM     13  C2  IDU d1623      62.045  38.745  40.014  0.00  0.00     0.228 C 
BRANCH  10  14
ATOM     14  C6  IDU d1623      66.132  37.980  39.128  0.00  0.00     0.170 C 
ATOM     15  O62 IDU d1623      66.688  36.893  38.913  0.00  0.00    -0.648 OA
BRANCH  14  16
ATOM     16  O61 IDU d1623      66.730  39.012  39.494  0.00  0.00    -0.774 OA
ENDBRANCH  14  16
ENDBRANCH  10  14
BRANCH  12  18
ATOM     18  O3  IDU d1623      62.062  36.795  38.601  0.00  0.00    -0.393 OA
ATOM     19  H   IDU d1623      61.353  37.354  38.246  0.00  0.00     0.210 HD
ENDBRANCH  12  18
BRANCH  13  20
ATOM     20  O2  IDU d1623      62.490  39.233  41.257  0.00  0.00    -0.244 OA
BRANCH  20  21
ATOM     21  S   IDU d1623      61.626  38.754  42.680  0.00  0.00     0.252 S 
ATOM     22  O3S IDU d1623      60.342  38.264  42.344  0.00  0.00    -0.572 OA
ATOM     23  O1S IDU d1623      61.596  39.894  43.547  0.00  0.00    -0.572 OA
ATOM     24  O2S IDU d1623      62.308  37.661  43.356  0.00  0.00    -0.572 OA
ENDBRANCH  20  21
ENDBRANCH  13  20
ENDBRANCH   7   8
ENDBRANCH   4   7
BRANCH   3  25
ATOM     25  C6  SGN d5702      63.217  43.298  40.294  0.00  0.00     0.227 C 
BRANCH  25  26
ATOM     26  O6  SGN d5702      62.429  44.178  41.082  0.00  0.00    -0.254 OA
BRANCH  26  27
ATOM     27  S2  SGN d5702      62.011  43.699  42.692  0.00  0.00     0.251 S 
ATOM     28  O4S SGN d5702      62.989  42.818  43.243  0.00  0.00    -0.572 OA
ATOM     29  O5S SGN d5702      60.742  43.029  42.652  0.00  0.00    -0.572 OA
ATOM     30  O6S SGN d5702      61.985  44.915  43.452  0.00  0.00    -0.572 OA
ENDBRANCH  26  27
ENDBRANCH  25  26
ENDBRANCH   3  25
BRANCH   5  31
ATOM     31  O3  SGN d5702      62.295  41.031  36.005  0.00  0.00    -0.391 OA
ATOM     32  H   SGN d5702      61.776  41.093  35.187  0.00  0.00     0.210 HD
ENDBRANCH   5  31
BRANCH   2  33
ATOM     33  N   SGN d5702      62.168  43.571  34.832  0.00  0.00    -0.189 NA
ATOM     34  H   SGN d5702      61.585  44.407  34.863  0.00  0.00     0.143 HD
BRANCH  33  35
ATOM     35  S1  SGN d5702      63.412  43.788  33.597  0.00  0.00     0.183 S 
ATOM     36  O1S SGN d5702      64.604  44.312  34.233  0.00  0.00    -0.582 OA
ATOM     37  O2S SGN d5702      62.962  44.764  32.659  0.00  0.00    -0.582 OA
ATOM     38  O3S SGN d5702      63.593  42.477  33.004  0.00  0.00    -0.582 OA
ENDBRANCH  33  35
ENDBRANCH   2  33
BRANCH   6  39
ATOM     39  O1  SGN d5702      61.151  44.988  36.996  0.00  0.00    -0.369 OA
ATOM     40  H   SGN d5702      61.081  45.955  37.006  0.00  0.00     0.212 HD
ENDBRANCH   6  39
TORSDOF 14
ENDMDL
MODEL 93
REMARK VINA RESULT:      -3.2      2.758      5.650
REMARK  14 active torsions:
REMARK  status: ('A' for Active; 'I' for Inactive)
REMARK    1  A    between atoms: C5_1  and  C6_23 
REMARK    2  A    between atoms: S2_5  and  O6_7 
REMARK    3  A    between atoms: O1_6  and  C1_35 
REMARK    4  A    between atoms: O6_7  and  C6_21 
REMARK    5  A    between atoms: O2_9  and  C2_28 
REMARK    6  A    between atoms: O2_9  and  S_13 
REMARK    7  A    between atoms: C3_10  and  O3_20 
REMARK    8  A    between atoms: C1_11  and  O4_12 
REMARK    9  A    between atoms: O4_12  and  C4_19 
REMARK   10  A    between atoms: C2_15  and  N_29 
REMARK   11  A    between atoms: C5_17  and  C6_21 
REMARK   12  A    between atoms: C6_23  and  O61_33 
REMARK   13  A    between atoms: O3_24  and  C3_26 
REMARK   14  A    between atoms: S1_27  and  N_29 
ROOT
ATOM      1  O5  SGN d5702      60.686  42.113  36.734  0.00  0.00    -0.350 OA
ATOM      2  C2  SGN d5702      62.145  44.018  36.666  0.00  0.00     0.160 C 
ATOM      3  C5  SGN d5702      61.341  41.475  35.665  0.00  0.00     0.181 C 
ATOM      4  C4  SGN d5702      62.815  41.928  35.635  0.00  0.00     0.186 C 
ATOM      5  C3  SGN d5702      62.829  43.468  35.442  0.00  0.00     0.173 C 
ATOM      6  C1  SGN d5702      60.705  43.543  36.724  0.00  0.00     0.278 C 
ENDROOT
BRANCH   4   7
ATOM      7  O4  SGN d5702      63.434  41.224  34.523  0.00  0.00    -0.348 OA
BRANCH   7   8
ATOM      8  C1  IDU d1623      64.773  40.781  34.454  0.00  0.00     0.294 C 
ATOM      9  O5  IDU d1623      64.975  39.443  35.013  0.00  0.00    -0.343 OA
ATOM     10  C5  IDU d1623      66.385  39.025  35.062  0.00  0.00     0.224 C 
ATOM     11  C4  IDU d1623      66.944  38.995  33.630  0.00  0.00     0.077 C 
ATOM     12  C3  IDU d1623      66.781  40.379  32.983  0.00  0.00     0.156 C 
ATOM     13  C2  IDU d1623      65.286  40.733  33.006  0.00  0.00     0.228 C 
BRANCH  10  14
ATOM     14  C6  IDU d1623      66.530  37.649  35.653  0.00  0.00     0.170 C 
ATOM     15  O62 IDU d1623      65.550  37.153  36.231  0.00  0.00    -0.648 OA
BRANCH  14  16
ATOM     16  O61 IDU d1623      67.633  37.078  35.532  0.00  0.00    -0.774 OA
ENDBRANCH  14  16
ENDBRANCH  10  14
BRANCH  12  18
ATOM     18  O3  IDU d1623      67.511  41.325  33.712  0.00  0.00    -0.393 OA
ATOM     19  H   IDU d1623      68.021  41.880  33.102  0.00  0.00     0.210 HD
ENDBRANCH  12  18
BRANCH  13  20
ATOM     20  O2  IDU d1623      64.550  39.743  32.327  0.00  0.00    -0.244 OA
BRANCH  20  21
ATOM     21  S   IDU d1623      64.556  39.763  30.595  0.00  0.00     0.252 S 
ATOM     22  O3S IDU d1623      65.463  38.803  30.087  0.00  0.00    -0.572 OA
ATOM     23  O1S IDU d1623      64.860  41.105  30.200  0.00  0.00    -0.572 OA
ATOM     24  O2S IDU d1623      63.250  39.397  30.069  0.00  0.00    -0.572 OA
ENDBRANCH  20  21
ENDBRANCH  13  20
ENDBRANCH   7   8
ENDBRANCH   4   7
BRANCH   3  25
ATOM     25  C6  SGN d5702      61.207  40.000  35.881  0.00  0.00     0.227 C 
BRANCH  25  26
ATOM     26  O6  SGN d5702      61.000  39.891  37.281  0.00  0.00    -0.254 OA
BRANCH  26  27
ATOM     27  S2  SGN d5702      62.142  38.992  38.221  0.00  0.00     0.251 S 
ATOM     28  O4S SGN d5702      62.073  39.346  39.602  0.00  0.00    -0.572 OA
ATOM     29  O5S SGN d5702      63.460  39.275  37.727  0.00  0.00    -0.572 OA
ATOM     30  O6S SGN d5702      61.763  37.618  38.063  0.00  0.00    -0.572 OA
ENDBRANCH  26  27
ENDBRANCH  25  26
ENDBRANCH   3  25
BRANCH   5  31
ATOM     31  O3  SGN d5702      64.156  43.935  35.421  0.00  0.00    -0.391 OA
ATOM     32  H   SGN d5702      64.404  44.244  36.306  0.00  0.00     0.210 HD
ENDBRANCH   5  31
BRANCH   2  33
ATOM     33  N   SGN d5702      62.125  45.443  36.624  0.00  0.00    -0.189 NA
ATOM     34  H   SGN d5702      61.159  45.756  36.524  0.00  0.00     0.143 HD
BRANCH  33  35
ATOM     35  S1  SGN d5702      62.808  46.157  38.088  0.00  0.00     0.183 S 
ATOM     36  O1S SGN d5702      63.237  45.085  38.964  0.00  0.00    -0.582 OA
ATOM     37  O2S SGN d5702      61.783  46.881  38.767  0.00  0.00    -0.582 OA
ATOM     38  O3S SGN d5702      63.890  47.006  37.628  0.00  0.00    -0.582 OA
ENDBRANCH  33  35
ENDBRANCH   2  33
BRANCH   6  39
ATOM     39  O1  SGN d5702      59.927  44.039  35.660  0.00  0.00    -0.369 OA
ATOM     40  H   SGN d5702      60.496  44.198  34.891  0.00  0.00     0.212 HD
ENDBRANCH   6  39
TORSDOF 14
ENDMDL
MODEL 94
REMARK VINA RESULT:      -3.2      3.034      6.741
REMARK  14 active torsions:
REMARK  status: ('A' for Active; 'I' for Inactive)
REMARK    1  A    between atoms: C5_1  and  C6_23 
REMARK    2  A    between atoms: S2_5  and  O6_7 
REMARK    3  A    between atoms: O1_6  and  C1_35 
REMARK    4  A    between atoms: O6_7  and  C6_21 
REMARK    5  A    between atoms: O2_9  and  C2_28 
REMARK    6  A    between atoms: O2_9  and  S_13 
REMARK    7  A    between atoms: C3_10  and  O3_20 
REMARK    8  A    between atoms: C1_11  and  O4_12 
REMARK    9  A    between atoms: O4_12  and  C4_19 
REMARK   10  A    between atoms: C2_15  and  N_29 
REMARK   11  A    between atoms: C5_17  and  C6_21 
REMARK   12  A    between atoms: C6_23  and  O61_33 
REMARK   13  A    between atoms: O3_24  and  C3_26 
REMARK   14  A    between atoms: S1_27  and  N_29 
ROOT
ATOM      1  O5  SGN d5702      65.203  40.460  30.235  0.00  0.00    -0.350 OA
ATOM      2  C2  SGN d5702      66.248  38.677  31.456  0.00  0.00     0.160 C 
ATOM      3  C5  SGN d5702      64.391  40.832  31.321  0.00  0.00     0.181 C 
ATOM      4  C4  SGN d5702      65.106  40.460  32.636  0.00  0.00     0.186 C 
ATOM      5  C3  SGN d5702      65.335  38.925  32.628  0.00  0.00     0.173 C 
ATOM      6  C1  SGN d5702      65.565  39.078  30.161  0.00  0.00     0.278 C 
ENDROOT
BRANCH   4   7
ATOM      7  O4  SGN d5702      64.224  40.883  33.712  0.00  0.00    -0.348 OA
BRANCH   7   8
ATOM      8  C1  IDU d1623      64.605  41.574  34.884  0.00  0.00     0.294 C 
ATOM      9  O5  IDU d1623      64.807  43.009  34.677  0.00  0.00    -0.343 OA
ATOM     10  C5  IDU d1623      65.327  43.713  35.860  0.00  0.00     0.224 C 
ATOM     11  C4  IDU d1623      64.313  43.571  37.007  0.00  0.00     0.077 C 
ATOM     12  C3  IDU d1623      64.063  42.082  37.293  0.00  0.00     0.156 C 
ATOM     13  C2  IDU d1623      63.553  41.436  35.996  0.00  0.00     0.228 C 
BRANCH  10  14
ATOM     14  C6  IDU d1623      65.523  45.180  35.584  0.00  0.00     0.170 C 
ATOM     15  O62 IDU d1623      66.495  45.520  34.892  0.00  0.00    -0.648 OA
BRANCH  14  16
ATOM     16  O61 IDU d1623      64.696  45.977  36.070  0.00  0.00    -0.774 OA
ENDBRANCH  14  16
ENDBRANCH  10  14
BRANCH  12  18
ATOM     18  O3  IDU d1623      65.259  41.476  37.695  0.00  0.00    -0.393 OA
ATOM     19  H   IDU d1623      65.124  41.027  38.545  0.00  0.00     0.210 HD
ENDBRANCH  12  18
BRANCH  13  20
ATOM     20  O2  IDU d1623      62.386  42.094  35.562  0.00  0.00    -0.244 OA
BRANCH  20  21
ATOM     21  S   IDU d1623      60.865  41.297  35.791  0.00  0.00     0.252 S 
ATOM     22  O3S IDU d1623      60.624  40.371  34.749  0.00  0.00    -0.572 OA
ATOM     23  O1S IDU d1623      59.872  42.324  35.887  0.00  0.00    -0.572 OA
ATOM     24  O2S IDU d1623      60.867  40.523  37.022  0.00  0.00    -0.572 OA
ENDBRANCH  20  21
ENDBRANCH  13  20
ENDBRANCH   7   8
ENDBRANCH   4   7
BRANCH   3  25
ATOM     25  C6  SGN d5702      64.146  42.304  31.207  0.00  0.00     0.227 C 
BRANCH  25  26
ATOM     26  O6  SGN d5702      65.430  42.868  31.429  0.00  0.00    -0.254 OA
BRANCH  26  27
ATOM     27  S2  SGN d5702      65.635  44.574  31.216  0.00  0.00     0.251 S 
ATOM     28  O4S SGN d5702      65.335  44.970  29.878  0.00  0.00    -0.572 OA
ATOM     29  O5S SGN d5702      66.999  44.909  31.512  0.00  0.00    -0.572 OA
ATOM     30  O6S SGN d5702      64.696  45.181  32.114  0.00  0.00    -0.572 OA
ENDBRANCH  26  27
ENDBRANCH  25  26
ENDBRANCH   3  25
BRANCH   5  31
ATOM     31  O3  SGN d5702      66.000  38.535  33.805  0.00  0.00    -0.391 OA
ATOM     32  H   SGN d5702      66.001  37.567  33.870  0.00  0.00     0.210 HD
ENDBRANCH   5  31
BRANCH   2  33
ATOM     33  N   SGN d5702      66.565  37.290  31.361  0.00  0.00    -0.189 NA
ATOM     34  H   SGN d5702      66.356  36.968  30.416  0.00  0.00     0.143 HD
BRANCH  33  35
ATOM     35  S1  SGN d5702      68.269  36.977  31.706  0.00  0.00     0.183 S 
ATOM     36  O1S SGN d5702      68.795  38.090  32.471  0.00  0.00    -0.582 OA
ATOM     37  O2S SGN d5702      68.985  36.926  30.474  0.00  0.00    -0.582 OA
ATOM     38  O3S SGN d5702      68.286  35.716  32.422  0.00  0.00    -0.582 OA
ENDBRANCH  33  35
ENDBRANCH   2  33
BRANCH   6  39
ATOM     39  O1  SGN d5702      64.437  38.287  29.875  0.00  0.00    -0.369 OA
ATOM     40  H   SGN d5702      63.674  38.861  29.705  0.00  0.00     0.212 HD
ENDBRANCH   6  39
TORSDOF 14
ENDMDL
MODEL 95
REMARK VINA RESULT:      -3.2      2.350      6.232
REMARK  14 active torsions:
REMARK  status: ('A' for Active; 'I' for Inactive)
REMARK    1  A    between atoms: C5_1  and  C6_23 
REMARK    2  A    between atoms: S2_5  and  O6_7 
REMARK    3  A    between atoms: O1_6  and  C1_35 
REMARK    4  A    between atoms: O6_7  and  C6_21 
REMARK    5  A    between atoms: O2_9  and  C2_28 
REMARK    6  A    between atoms: O2_9  and  S_13 
REMARK    7  A    between atoms: C3_10  and  O3_20 
REMARK    8  A    between atoms: C1_11  and  O4_12 
REMARK    9  A    between atoms: O4_12  and  C4_19 
REMARK   10  A    between atoms: C2_15  and  N_29 
REMARK   11  A    between atoms: C5_17  and  C6_21 
REMARK   12  A    between atoms: C6_23  and  O61_33 
REMARK   13  A    between atoms: O3_24  and  C3_26 
REMARK   14  A    between atoms: S1_27  and  N_29 
ROOT
ATOM      1  O5  SGN d5702      63.514  40.311  38.124  0.00  0.00    -0.350 OA
ATOM      2  C2  SGN d5702      61.994  41.763  36.965  0.00  0.00     0.160 C 
ATOM      3  C5  SGN d5702      63.982  39.724  36.934  0.00  0.00     0.181 C 
ATOM      4  C4  SGN d5702      63.847  40.741  35.783  0.00  0.00     0.186 C 
ATOM      5  C3  SGN d5702      62.345  41.109  35.655  0.00  0.00     0.173 C 
ATOM      6  C1  SGN d5702      62.163  40.779  38.108  0.00  0.00     0.278 C 
ENDROOT
BRANCH   4   7
ATOM      7  O4  SGN d5702      64.360  40.079  34.594  0.00  0.00    -0.348 OA
BRANCH   7   8
ATOM      8  C1  IDU d1623      64.707  40.700  33.374  0.00  0.00     0.294 C 
ATOM      9  O5  IDU d1623      65.994  41.399  33.420  0.00  0.00    -0.343 OA
ATOM     10  C5  IDU d1623      66.304  42.156  32.196  0.00  0.00     0.224 C 
ATOM     11  C4  IDU d1623      66.375  41.177  31.013  0.00  0.00     0.077 C 
ATOM     12  C3  IDU d1623      65.046  40.415  30.892  0.00  0.00     0.156 C 
ATOM     13  C2  IDU d1623      64.801  39.687  32.222  0.00  0.00     0.228 C 
BRANCH  10  14
ATOM     14  C6  IDU d1623      67.630  42.859  32.307  0.00  0.00     0.170 C 
ATOM     15  O62 IDU d1623      68.411  42.788  31.346  0.00  0.00    -0.648 OA
BRANCH  14  16
ATOM     16  O61 IDU d1623      67.873  43.476  33.364  0.00  0.00    -0.774 OA
ENDBRANCH  14  16
ENDBRANCH  10  14
BRANCH  12  18
ATOM     18  O3  IDU d1623      64.009  41.322  30.642  0.00  0.00    -0.393 OA
ATOM     19  H   IDU d1623      63.737  41.739  31.474  0.00  0.00     0.210 HD
ENDBRANCH  12  18
BRANCH  13  20
ATOM     20  O2  IDU d1623      65.880  38.826  32.500  0.00  0.00    -0.244 OA
BRANCH  20  21
ATOM     21  S   IDU d1623      65.989  37.340  31.616  0.00  0.00     0.252 S 
ATOM     22  O3S IDU d1623      66.066  36.237  32.499  0.00  0.00    -0.572 OA
ATOM     23  O1S IDU d1623      67.121  37.460  30.747  0.00  0.00    -0.572 OA
ATOM     24  O2S IDU d1623      64.794  37.127  30.813  0.00  0.00    -0.572 OA
ENDBRANCH  20  21
ENDBRANCH  13  20
ENDBRANCH   7   8
ENDBRANCH   4   7
BRANCH   3  25
ATOM     25  C6  SGN d5702      65.404  39.321  37.170  0.00  0.00     0.227 C 
BRANCH  25  26
ATOM     26  O6  SGN d5702      65.458  37.995  36.665  0.00  0.00    -0.254 OA
BRANCH  26  27
ATOM     27  S2  SGN d5702      67.005  37.243  36.473  0.00  0.00     0.251 S 
ATOM     28  O4S SGN d5702      67.926  37.686  37.470  0.00  0.00    -0.572 OA
ATOM     29  O5S SGN d5702      67.517  37.582  35.176  0.00  0.00    -0.572 OA
ATOM     30  O6S SGN d5702      66.766  35.839  36.638  0.00  0.00    -0.572 OA
ENDBRANCH  26  27
ENDBRANCH  25  26
ENDBRANCH   3  25
BRANCH   5  31
ATOM     31  O3  SGN d5702      62.169  42.048  34.622  0.00  0.00    -0.391 OA
ATOM     32  H   SGN d5702      63.016  42.480  34.430  0.00  0.00     0.210 HD
ENDBRANCH   5  31
BRANCH   2  33
ATOM     33  N   SGN d5702      60.631  42.183  36.959  0.00  0.00    -0.189 NA
ATOM     34  H   SGN d5702      60.254  42.094  37.903  0.00  0.00     0.143 HD
BRANCH  33  35
ATOM     35  S1  SGN d5702      60.459  43.859  36.432  0.00  0.00     0.183 S 
ATOM     36  O1S SGN d5702      61.753  44.505  36.524  0.00  0.00    -0.582 OA
ATOM     37  O2S SGN d5702      59.577  44.534  37.327  0.00  0.00    -0.582 OA
ATOM     38  O3S SGN d5702      59.939  43.781  35.080  0.00  0.00    -0.582 OA
ENDBRANCH  33  35
ENDBRANCH   2  33
BRANCH   6  39
ATOM     39  O1  SGN d5702      61.266  39.696  38.028  0.00  0.00    -0.369 OA
ATOM     40  H   SGN d5702      61.559  38.990  38.625  0.00  0.00     0.212 HD
ENDBRANCH   6  39
TORSDOF 14
ENDMDL
MODEL 96
REMARK VINA RESULT:      -3.2      3.104      6.148
REMARK  14 active torsions:
REMARK  status: ('A' for Active; 'I' for Inactive)
REMARK    1  A    between atoms: C5_1  and  C6_23 
REMARK    2  A    between atoms: S2_5  and  O6_7 
REMARK    3  A    between atoms: O1_6  and  C1_35 
REMARK    4  A    between atoms: O6_7  and  C6_21 
REMARK    5  A    between atoms: O2_9  and  C2_28 
REMARK    6  A    between atoms: O2_9  and  S_13 
REMARK    7  A    between atoms: C3_10  and  O3_20 
REMARK    8  A    between atoms: C1_11  and  O4_12 
REMARK    9  A    between atoms: O4_12  and  C4_19 
REMARK   10  A    between atoms: C2_15  and  N_29 
REMARK   11  A    between atoms: C5_17  and  C6_21 
REMARK   12  A    between atoms: C6_23  and  O61_33 
REMARK   13  A    between atoms: O3_24  and  C3_26 
REMARK   14  A    between atoms: S1_27  and  N_29 
ROOT
ATOM      1  O5  SGN d5702      65.535  38.907  39.443  0.00  0.00    -0.350 OA
ATOM      2  C2  SGN d5702      63.366  38.218  40.210  0.00  0.00     0.160 C 
ATOM      3  C5  SGN d5702      65.008  39.603  38.340  0.00  0.00     0.181 C 
ATOM      4  C4  SGN d5702      63.585  40.087  38.682  0.00  0.00     0.186 C 
ATOM      5  C3  SGN d5702      62.725  38.833  38.995  0.00  0.00     0.173 C 
ATOM      6  C1  SGN d5702      64.783  37.776  39.892  0.00  0.00     0.278 C 
ENDROOT
BRANCH   4   7
ATOM      7  O4  SGN d5702      63.109  40.808  37.512  0.00  0.00    -0.348 OA
BRANCH   7   8
ATOM      8  C1  IDU d1623      62.127  41.823  37.496  0.00  0.00     0.294 C 
ATOM      9  O5  IDU d1623      62.411  42.926  38.417  0.00  0.00    -0.343 OA
ATOM     10  C5  IDU d1623      61.333  43.924  38.502  0.00  0.00     0.224 C 
ATOM     11  C4  IDU d1623      61.127  44.551  37.113  0.00  0.00     0.077 C 
ATOM     12  C3  IDU d1623      60.806  43.449  36.092  0.00  0.00     0.156 C 
ATOM     13  C2  IDU d1623      61.972  42.448  36.100  0.00  0.00     0.228 C 
BRANCH  10  14
ATOM     14  C6  IDU d1623      61.678  45.024  39.469  0.00  0.00     0.170 C 
ATOM     15  O62 IDU d1623      62.828  45.057  39.932  0.00  0.00    -0.648 OA
BRANCH  14  16
ATOM     16  O61 IDU d1623      60.783  45.846  39.755  0.00  0.00    -0.774 OA
ENDBRANCH  14  16
ENDBRANCH  10  14
BRANCH  12  18
ATOM     18  O3  IDU d1623      59.617  42.805  36.456  0.00  0.00    -0.393 OA
ATOM     19  H   IDU d1623      59.749  42.335  37.294  0.00  0.00     0.210 HD
ENDBRANCH  12  18
BRANCH  13  20
ATOM     20  O2  IDU d1623      63.175  43.115  35.797  0.00  0.00    -0.244 OA
BRANCH  20  21
ATOM     21  S   IDU d1623      63.662  43.210  34.138  0.00  0.00     0.252 S 
ATOM     22  O3S IDU d1623      65.058  43.418  34.038  0.00  0.00    -0.572 OA
ATOM     23  O1S IDU d1623      62.882  44.250  33.538  0.00  0.00    -0.572 OA
ATOM     24  O2S IDU d1623      63.394  41.957  33.448  0.00  0.00    -0.572 OA
ENDBRANCH  20  21
ENDBRANCH  13  20
ENDBRANCH   7   8
ENDBRANCH   4   7
BRANCH   3  25
ATOM     25  C6  SGN d5702      65.938  40.740  38.050  0.00  0.00     0.227 C 
BRANCH  25  26
ATOM     26  O6  SGN d5702      67.037  40.111  37.408  0.00  0.00    -0.254 OA
BRANCH  26  27
ATOM     27  S2  SGN d5702      66.909  39.736  35.723  0.00  0.00     0.251 S 
ATOM     28  O4S SGN d5702      68.057  40.183  35.003  0.00  0.00    -0.572 OA
ATOM     29  O5S SGN d5702      65.742  40.389  35.200  0.00  0.00    -0.572 OA
ATOM     30  O6S SGN d5702      66.833  38.306  35.659  0.00  0.00    -0.572 OA
ENDBRANCH  26  27
ENDBRANCH  25  26
ENDBRANCH   3  25
BRANCH   5  31
ATOM     31  O3  SGN d5702      61.414  39.223  39.327  0.00  0.00    -0.391 OA
ATOM     32  H   SGN d5702      61.287  39.144  40.285  0.00  0.00     0.210 HD
ENDBRANCH   5  31
BRANCH   2  33
ATOM     33  N   SGN d5702      62.639  37.064  40.623  0.00  0.00    -0.189 NA
ATOM     34  H   SGN d5702      63.270  36.262  40.631  0.00  0.00     0.143 HD
BRANCH  33  35
ATOM     35  S1  SGN d5702      61.946  37.261  42.236  0.00  0.00     0.183 S 
ATOM     36  O1S SGN d5702      60.940  38.303  42.179  0.00  0.00    -0.582 OA
ATOM     37  O2S SGN d5702      62.970  37.700  43.125  0.00  0.00    -0.582 OA
ATOM     38  O3S SGN d5702      61.417  35.956  42.584  0.00  0.00    -0.582 OA
ENDBRANCH  33  35
ENDBRANCH   2  33
BRANCH   6  39
ATOM     39  O1  SGN d5702      64.826  36.743  38.937  0.00  0.00    -0.369 OA
ATOM     40  H   SGN d5702      65.512  36.102  39.185  0.00  0.00     0.212 HD
ENDBRANCH   6  39
TORSDOF 14
ENDMDL
MODEL 97
REMARK VINA RESULT:      -3.1      2.814      6.043
REMARK  14 active torsions:
REMARK  status: ('A' for Active; 'I' for Inactive)
REMARK    1  A    between atoms: C5_1  and  C6_23 
REMARK    2  A    between atoms: S2_5  and  O6_7 
REMARK    3  A    between atoms: O1_6  and  C1_35 
REMARK    4  A    between atoms: O6_7  and  C6_21 
REMARK    5  A    between atoms: O2_9  and  C2_28 
REMARK    6  A    between atoms: O2_9  and  S_13 
REMARK    7  A    between atoms: C3_10  and  O3_20 
REMARK    8  A    between atoms: C1_11  and  O4_12 
REMARK    9  A    between atoms: O4_12  and  C4_19 
REMARK   10  A    between atoms: C2_15  and  N_29 
REMARK   11  A    between atoms: C5_17  and  C6_21 
REMARK   12  A    between atoms: C6_23  and  O61_33 
REMARK   13  A    between atoms: O3_24  and  C3_26 
REMARK   14  A    between atoms: S1_27  and  N_29 
ROOT
ATOM      1  O5  SGN d5702      64.892  37.248  38.455  0.00  0.00    -0.350 OA
ATOM      2  C2  SGN d5702      62.884  37.497  39.747  0.00  0.00     0.160 C 
ATOM      3  C5  SGN d5702      64.444  38.120  37.446  0.00  0.00     0.181 C 
ATOM      4  C4  SGN d5702      63.465  39.140  38.061  0.00  0.00     0.186 C 
ATOM      5  C3  SGN d5702      62.274  38.345  38.662  0.00  0.00     0.173 C 
ATOM      6  C1  SGN d5702      63.880  36.518  39.154  0.00  0.00     0.278 C 
ENDROOT
BRANCH   4   7
ATOM      7  O4  SGN d5702      63.055  40.015  36.975  0.00  0.00    -0.348 OA
BRANCH   7   8
ATOM      8  C1  IDU d1623      62.419  41.270  37.104  0.00  0.00     0.294 C 
ATOM      9  O5  IDU d1623      63.095  42.174  38.037  0.00  0.00    -0.343 OA
ATOM     10  C5  IDU d1623      62.371  43.433  38.277  0.00  0.00     0.224 C 
ATOM     11  C4  IDU d1623      62.240  44.190  36.945  0.00  0.00     0.077 C 
ATOM     12  C3  IDU d1623      61.521  43.304  35.916  0.00  0.00     0.156 C 
ATOM     13  C2  IDU d1623      62.336  42.011  35.760  0.00  0.00     0.228 C 
BRANCH  10  14
ATOM     14  C6  IDU d1623      63.107  44.314  39.249  0.00  0.00     0.170 C 
ATOM     15  O62 IDU d1623      63.025  45.543  39.104  0.00  0.00    -0.648 OA
BRANCH  14  16
ATOM     16  O61 IDU d1623      63.764  43.758  40.153  0.00  0.00    -0.774 OA
ENDBRANCH  14  16
ENDBRANCH  10  14
BRANCH  12  18
ATOM     18  O3  IDU d1623      60.231  43.008  36.374  0.00  0.00    -0.393 OA
ATOM     19  H   IDU d1623      60.015  42.088  36.157  0.00  0.00     0.210 HD
ENDBRANCH  12  18
BRANCH  13  20
ATOM     20  O2  IDU d1623      63.651  42.321  35.364  0.00  0.00    -0.244 OA
BRANCH  20  21
ATOM     21  S   IDU d1623      64.144  41.890  33.760  0.00  0.00     0.252 S 
ATOM     22  O3S IDU d1623      65.540  41.665  33.710  0.00  0.00    -0.572 OA
ATOM     23  O1S IDU d1623      63.700  42.942  32.895  0.00  0.00    -0.572 OA
ATOM     24  O2S IDU d1623      63.522  40.642  33.346  0.00  0.00    -0.572 OA
ENDBRANCH  20  21
ENDBRANCH  13  20
ENDBRANCH   7   8
ENDBRANCH   4   7
BRANCH   3  25
ATOM     25  C6  SGN d5702      65.654  38.780  36.862  0.00  0.00     0.227 C 
BRANCH  25  26
ATOM     26  O6  SGN d5702      65.351  38.854  35.477  0.00  0.00    -0.254 OA
BRANCH  26  27
ATOM     27  S2  SGN d5702      66.440  38.120  34.350  0.00  0.00     0.251 S 
ATOM     28  O4S SGN d5702      67.747  38.686  34.445  0.00  0.00    -0.572 OA
ATOM     29  O5S SGN d5702      65.931  38.330  33.024  0.00  0.00    -0.572 OA
ATOM     30  O6S SGN d5702      66.493  36.737  34.723  0.00  0.00    -0.572 OA
ENDBRANCH  26  27
ENDBRANCH  25  26
ENDBRANCH   3  25
BRANCH   5  31
ATOM     31  O3  SGN d5702      61.355  39.233  39.249  0.00  0.00    -0.391 OA
ATOM     32  H   SGN d5702      61.530  40.134  38.937  0.00  0.00     0.210 HD
ENDBRANCH   5  31
BRANCH   2  33
ATOM     33  N   SGN d5702      61.875  36.736  40.406  0.00  0.00    -0.189 NA
ATOM     34  H   SGN d5702      62.141  35.751  40.389  0.00  0.00     0.143 HD
BRANCH  33  35
ATOM     35  S1  SGN d5702      61.659  37.240  42.085  0.00  0.00     0.183 S 
ATOM     36  O1S SGN d5702      61.007  36.165  42.807  0.00  0.00    -0.582 OA
ATOM     37  O2S SGN d5702      60.787  38.369  42.118  0.00  0.00    -0.582 OA
ATOM     38  O3S SGN d5702      62.993  37.543  42.566  0.00  0.00    -0.582 OA
ENDBRANCH  33  35
ENDBRANCH   2  33
BRANCH   6  39
ATOM     39  O1  SGN d5702      63.273  35.577  38.301  0.00  0.00    -0.369 OA
ATOM     40  H   SGN d5702      63.374  34.688  38.677  0.00  0.00     0.212 HD
ENDBRANCH   6  39
TORSDOF 14
ENDMDL
MODEL 98
REMARK VINA RESULT:      -2.9      1.562      2.112
REMARK  14 active torsions:
REMARK  status: ('A' for Active; 'I' for Inactive)
REMARK    1  A    between atoms: C5_1  and  C6_23 
REMARK    2  A    between atoms: S2_5  and  O6_7 
REMARK    3  A    between atoms: O1_6  and  C1_35 
REMARK    4  A    between atoms: O6_7  and  C6_21 
REMARK    5  A    between atoms: O2_9  and  C2_28 
REMARK    6  A    between atoms: O2_9  and  S_13 
REMARK    7  A    between atoms: C3_10  and  O3_20 
REMARK    8  A    between atoms: C1_11  and  O4_12 
REMARK    9  A    between atoms: O4_12  and  C4_19 
REMARK   10  A    between atoms: C2_15  and  N_29 
REMARK   11  A    between atoms: C5_17  and  C6_21 
REMARK   12  A    between atoms: C6_23  and  O61_33 
REMARK   13  A    between atoms: O3_24  and  C3_26 
REMARK   14  A    between atoms: S1_27  and  N_29 
ROOT
ATOM      1  O5  SGN d5702      61.098  39.333  37.383  0.00  0.00    -0.350 OA
ATOM      2  C2  SGN d5702      63.213  38.397  38.026  0.00  0.00     0.160 C 
ATOM      3  C5  SGN d5702      61.686  40.501  36.865  0.00  0.00     0.181 C 
ATOM      4  C4  SGN d5702      63.114  40.177  36.383  0.00  0.00     0.186 C 
ATOM      5  C3  SGN d5702      63.916  39.661  37.608  0.00  0.00     0.173 C 
ATOM      6  C1  SGN d5702      61.793  38.703  38.464  0.00  0.00     0.278 C 
ENDROOT
BRANCH   4   7
ATOM      7  O4  SGN d5702      63.654  41.416  35.849  0.00  0.00    -0.348 OA
BRANCH   7   8
ATOM      8  C1  IDU d1623      64.999  41.658  35.489  0.00  0.00     0.294 C 
ATOM      9  O5  IDU d1623      65.489  40.772  34.431  0.00  0.00    -0.343 OA
ATOM     10  C5  IDU d1623      66.923  40.929  34.140  0.00  0.00     0.224 C 
ATOM     11  C4  IDU d1623      67.177  42.369  33.664  0.00  0.00     0.077 C 
ATOM     12  C3  IDU d1623      66.700  43.360  34.737  0.00  0.00     0.156 C 
ATOM     13  C2  IDU d1623      65.207  43.096  34.988  0.00  0.00     0.228 C 
BRANCH  10  14
ATOM     14  C6  IDU d1623      67.369  39.988  33.055  0.00  0.00     0.170 C 
ATOM     15  O62 IDU d1623      66.522  39.586  32.243  0.00  0.00    -0.648 OA
BRANCH  14  16
ATOM     16  O61 IDU d1623      68.573  39.660  33.030  0.00  0.00    -0.774 OA
ENDBRANCH  14  16
ENDBRANCH  10  14
BRANCH  12  18
ATOM     18  O3  IDU d1623      67.429  43.159  35.916  0.00  0.00    -0.393 OA
ATOM     19  H   IDU d1623      67.363  43.949  36.474  0.00  0.00     0.210 HD
ENDBRANCH  12  18
BRANCH  13  20
ATOM     20  O2  IDU d1623      64.490  43.235  33.784  0.00  0.00    -0.244 OA
BRANCH  20  21
ATOM     21  S   IDU d1623      64.103  44.834  33.243  0.00  0.00     0.252 S 
ATOM     22  O3S IDU d1623      65.083  45.305  32.337  0.00  0.00    -0.572 OA
ATOM     23  O1S IDU d1623      63.969  45.645  34.415  0.00  0.00    -0.572 OA
ATOM     24  O2S IDU d1623      62.845  44.843  32.512  0.00  0.00    -0.572 OA
ENDBRANCH  20  21
ENDBRANCH  13  20
ENDBRANCH   7   8
ENDBRANCH   4   7
BRANCH   3  25
ATOM     25  C6  SGN d5702      60.808  40.980  35.750  0.00  0.00     0.227 C 
BRANCH  25  26
ATOM     26  O6  SGN d5702      60.014  41.983  36.365  0.00  0.00    -0.254 OA
BRANCH  26  27
ATOM     27  S2  SGN d5702      60.602  43.611  36.383  0.00  0.00     0.251 S 
ATOM     28  O4S SGN d5702      61.479  43.835  37.486  0.00  0.00    -0.572 OA
ATOM     29  O5S SGN d5702      59.478  44.498  36.487  0.00  0.00    -0.572 OA
ATOM     30  O6S SGN d5702      61.330  43.762  35.157  0.00  0.00    -0.572 OA
ENDBRANCH  26  27
ENDBRANCH  25  26
ENDBRANCH   3  25
BRANCH   5  31
ATOM     31  O3  SGN d5702      65.229  39.337  37.217  0.00  0.00    -0.391 OA
ATOM     32  H   SGN d5702      65.408  39.714  36.342  0.00  0.00     0.210 HD
ENDBRANCH   5  31
BRANCH   2  33
ATOM     33  N   SGN d5702      63.884  37.802  39.135  0.00  0.00    -0.189 NA
ATOM     34  H   SGN d5702      63.230  37.727  39.915  0.00  0.00     0.143 HD
BRANCH  33  35
ATOM     35  S1  SGN d5702      64.497  36.191  38.749  0.00  0.00     0.183 S 
ATOM     36  O1S SGN d5702      65.482  36.316  37.693  0.00  0.00    -0.582 OA
ATOM     37  O2S SGN d5702      63.424  35.399  38.243  0.00  0.00    -0.582 OA
ATOM     38  O3S SGN d5702      65.037  35.681  39.995  0.00  0.00    -0.582 OA
ENDBRANCH  33  35
ENDBRANCH   2  33
BRANCH   6  39
ATOM     39  O1  SGN d5702      61.742  39.507  39.618  0.00  0.00    -0.369 OA
ATOM     40  H   SGN d5702      62.598  39.946  39.744  0.00  0.00     0.212 HD
ENDBRANCH   6  39
TORSDOF 14
ENDMDL
