MODEL 1
REMARK VINA RESULT:      -5.0      0.000      0.000
REMARK  14 active torsions:
REMARK  status: ('A' for Active; 'I' for Inactive)
REMARK    1  A    between atoms: C5_1  and  C6_23 
REMARK    2  A    between atoms: S2_5  and  O6_7 
REMARK    3  A    between atoms: O1_6  and  C1_35 
REMARK    4  A    between atoms: O6_7  and  C6_21 
REMARK    5  A    between atoms: O2_9  and  C2_28 
REMARK    6  A    between atoms: O2_9  and  S_13 
REMARK    7  A    between atoms: C3_10  and  O3_20 
REMARK    8  A    between atoms: C1_11  and  O4_12 
REMARK    9  A    between atoms: O4_12  and  C4_19 
REMARK   10  A    between atoms: C2_15  and  N_29 
REMARK   11  A    between atoms: C5_17  and  C6_21 
REMARK   12  A    between atoms: C6_23  and  O61_33 
REMARK   13  A    between atoms: O3_24  and  C3_26 
REMARK   14  A    between atoms: S1_27  and  N_29 
ROOT
ATOM      1  O5  SGN d5702      61.086  39.627  37.337  0.00  0.00    -0.350 OA
ATOM      2  C2  SGN d5702      63.156  38.497  37.789  0.00  0.00     0.160 C 
ATOM      3  C5  SGN d5702      61.710  40.621  36.561  0.00  0.00     0.181 C 
ATOM      4  C4  SGN d5702      62.987  40.037  35.925  0.00  0.00     0.186 C 
ATOM      5  C3  SGN d5702      63.921  39.582  37.079  0.00  0.00     0.173 C 
ATOM      6  C1  SGN d5702      61.876  39.056  38.384  0.00  0.00     0.278 C 
ENDROOT
BRANCH   4   7
ATOM      7  O4  SGN d5702      63.570  41.106  35.129  0.00  0.00    -0.348 OA
BRANCH   7   8
ATOM      8  C1  IDU d1623      64.469  40.952  34.051  0.00  0.00     0.294 C 
ATOM      9  O5  IDU d1623      63.912  40.193  32.929  0.00  0.00    -0.343 OA
ATOM     10  C5  IDU d1623      64.881  39.917  31.857  0.00  0.00     0.224 C 
ATOM     11  C4  IDU d1623      65.377  41.254  31.281  0.00  0.00     0.077 C 
ATOM     12  C3  IDU d1623      65.993  42.103  32.405  0.00  0.00     0.156 C 
ATOM     13  C2  IDU d1623      64.917  42.308  33.481  0.00  0.00     0.228 C 
BRANCH  10  14
ATOM     14  C6  IDU d1623      64.255  39.127  30.740  0.00  0.00     0.170 C 
ATOM     15  O62 IDU d1623      64.747  38.025  30.456  0.00  0.00    -0.648 OA
BRANCH  14  16
ATOM     16  O61 IDU d1623      63.271  39.627  30.156  0.00  0.00    -0.774 OA
ENDBRANCH  14  16
ENDBRANCH  10  14
BRANCH  12  18
ATOM     18  O3  IDU d1623      67.095  41.430  32.948  0.00  0.00    -0.393 OA
ATOM     19  H   IDU d1623      67.653  41.092  32.230  0.00  0.00     0.210 HD
ENDBRANCH  12  18
BRANCH  13  20
ATOM     20  O2  IDU d1623      63.785  42.925  32.913  0.00  0.00    -0.244 OA
BRANCH  20  21
ATOM     21  S   IDU d1623      63.948  44.546  32.324  0.00  0.00     0.252 S 
ATOM     22  O3S IDU d1623      63.121  45.429  33.058  0.00  0.00    -0.572 OA
ATOM     23  O1S IDU d1623      63.648  44.508  30.925  0.00  0.00    -0.572 OA
ATOM     24  O2S IDU d1623      65.309  45.028  32.506  0.00  0.00    -0.572 OA
ENDBRANCH  20  21
ENDBRANCH  13  20
ENDBRANCH   7   8
ENDBRANCH   4   7
BRANCH   3  25
ATOM     25  C6  SGN d5702      60.718  41.065  35.532  0.00  0.00     0.227 C 
BRANCH  25  26
ATOM     26  O6  SGN d5702      59.955  42.050  36.214  0.00  0.00    -0.254 OA
BRANCH  26  27
ATOM     27  S2  SGN d5702      60.595  43.653  36.341  0.00  0.00     0.251 S 
ATOM     28  O4S SGN d5702      61.438  43.787  37.484  0.00  0.00    -0.572 OA
ATOM     29  O5S SGN d5702      59.498  44.572  36.454  0.00  0.00    -0.572 OA
ATOM     30  O6S SGN d5702      61.372  43.844  35.151  0.00  0.00    -0.572 OA
ENDBRANCH  26  27
ENDBRANCH  25  26
ENDBRANCH   3  25
BRANCH   5  31
ATOM     31  O3  SGN d5702      65.100  39.027  36.548  0.00  0.00    -0.391 OA
ATOM     32  H   SGN d5702      64.940  38.740  35.636  0.00  0.00     0.210 HD
ENDBRANCH   5  31
BRANCH   2  33
ATOM     33  N   SGN d5702      63.931  37.966  38.862  0.00  0.00    -0.189 NA
ATOM     34  H   SGN d5702      63.414  38.087  39.733  0.00  0.00     0.143 HD
BRANCH  33  35
ATOM     35  S1  SGN d5702      64.280  36.249  38.639  0.00  0.00     0.183 S 
ATOM     36  O1S SGN d5702      63.175  35.482  39.178  0.00  0.00    -0.582 OA
ATOM     37  O2S SGN d5702      65.443  35.915  39.393  0.00  0.00    -0.582 OA
ATOM     38  O3S SGN d5702      64.466  36.082  37.210  0.00  0.00    -0.582 OA
ENDBRANCH  33  35
ENDBRANCH   2  33
BRANCH   6  39
ATOM     39  O1  SGN d5702      62.118  40.006  39.394  0.00  0.00    -0.369 OA
ATOM     40  H   SGN d5702      63.068  40.199  39.435  0.00  0.00     0.212 HD
ENDBRANCH   6  39
TORSDOF 14
ENDMDL
MODEL 2
REMARK VINA RESULT:      -5.0      0.880      1.008
REMARK  14 active torsions:
REMARK  status: ('A' for Active; 'I' for Inactive)
REMARK    1  A    between atoms: C5_1  and  C6_23 
REMARK    2  A    between atoms: S2_5  and  O6_7 
REMARK    3  A    between atoms: O1_6  and  C1_35 
REMARK    4  A    between atoms: O6_7  and  C6_21 
REMARK    5  A    between atoms: O2_9  and  C2_28 
REMARK    6  A    between atoms: O2_9  and  S_13 
REMARK    7  A    between atoms: C3_10  and  O3_20 
REMARK    8  A    between atoms: C1_11  and  O4_12 
REMARK    9  A    between atoms: O4_12  and  C4_19 
REMARK   10  A    between atoms: C2_15  and  N_29 
REMARK   11  A    between atoms: C5_17  and  C6_21 
REMARK   12  A    between atoms: C6_23  and  O61_33 
REMARK   13  A    between atoms: O3_24  and  C3_26 
REMARK   14  A    between atoms: S1_27  and  N_29 
ROOT
ATOM      1  O5  SGN d5702      61.059  39.445  37.297  0.00  0.00    -0.350 OA
ATOM      2  C2  SGN d5702      63.181  38.460  37.836  0.00  0.00     0.160 C 
ATOM      3  C5  SGN d5702      61.649  40.563  36.678  0.00  0.00     0.181 C 
ATOM      4  C4  SGN d5702      63.025  40.158  36.114  0.00  0.00     0.186 C 
ATOM      5  C3  SGN d5702      63.896  39.673  37.304  0.00  0.00     0.173 C 
ATOM      6  C1  SGN d5702      61.808  38.843  38.357  0.00  0.00     0.278 C 
ENDROOT
BRANCH   4   7
ATOM      7  O4  SGN d5702      63.569  41.348  35.478  0.00  0.00    -0.348 OA
BRANCH   7   8
ATOM      8  C1  IDU d1623      64.438  41.380  34.365  0.00  0.00     0.294 C 
ATOM      9  O5  IDU d1623      63.784  41.029  33.103  0.00  0.00    -0.343 OA
ATOM     10  C5  IDU d1623      64.707  40.934  31.961  0.00  0.00     0.224 C 
ATOM     11  C4  IDU d1623      65.374  42.303  31.747  0.00  0.00     0.077 C 
ATOM     12  C3  IDU d1623      66.098  42.731  33.033  0.00  0.00     0.156 C 
ATOM     13  C2  IDU d1623      65.060  42.771  34.164  0.00  0.00     0.228 C 
BRANCH  10  14
ATOM     14  C6  IDU d1623      63.981  40.562  30.697  0.00  0.00     0.170 C 
ATOM     15  O62 IDU d1623      63.768  39.359  30.476  0.00  0.00    -0.648 OA
BRANCH  14  16
ATOM     16  O61 IDU d1623      63.631  41.486  29.935  0.00  0.00    -0.774 OA
ENDBRANCH  14  16
ENDBRANCH  10  14
BRANCH  12  18
ATOM     18  O3  IDU d1623      67.103  41.803  33.334  0.00  0.00    -0.393 OA
ATOM     19  H   IDU d1623      67.313  41.285  32.541  0.00  0.00     0.210 HD
ENDBRANCH  12  18
BRANCH  13  20
ATOM     20  O2  IDU d1623      64.019  43.656  33.825  0.00  0.00    -0.244 OA
BRANCH  20  21
ATOM     21  S   IDU d1623      64.273  45.352  34.076  0.00  0.00     0.252 S 
ATOM     22  O3S IDU d1623      63.739  45.757  35.322  0.00  0.00    -0.572 OA
ATOM     23  O1S IDU d1623      63.692  46.026  32.955  0.00  0.00    -0.572 OA
ATOM     24  O2S IDU d1623      65.694  45.659  34.130  0.00  0.00    -0.572 OA
ENDBRANCH  20  21
ENDBRANCH  13  20
ENDBRANCH   7   8
ENDBRANCH   4   7
BRANCH   3  25
ATOM     25  C6  SGN d5702      60.710  41.020  35.605  0.00  0.00     0.227 C 
BRANCH  25  26
ATOM     26  O6  SGN d5702      59.929  42.013  36.253  0.00  0.00    -0.254 OA
BRANCH  26  27
ATOM     27  S2  SGN d5702      60.528  43.636  36.304  0.00  0.00     0.251 S 
ATOM     28  O4S SGN d5702      61.477  43.807  37.357  0.00  0.00    -0.572 OA
ATOM     29  O5S SGN d5702      59.420  44.522  36.521  0.00  0.00    -0.572 OA
ATOM     30  O6S SGN d5702      61.176  43.839  35.042  0.00  0.00    -0.572 OA
ENDBRANCH  26  27
ENDBRANCH  25  26
ENDBRANCH   3  25
BRANCH   5  31
ATOM     31  O3  SGN d5702      65.164  39.278  36.838  0.00  0.00    -0.391 OA
ATOM     32  H   SGN d5702      65.769  40.036  36.865  0.00  0.00     0.210 HD
ENDBRANCH   5  31
BRANCH   2  33
ATOM     33  N   SGN d5702      63.908  37.894  38.924  0.00  0.00    -0.189 NA
ATOM     34  H   SGN d5702      63.320  37.909  39.757  0.00  0.00     0.143 HD
BRANCH  33  35
ATOM     35  S1  SGN d5702      64.394  36.227  38.598  0.00  0.00     0.183 S 
ATOM     36  O1S SGN d5702      63.229  35.375  38.733  0.00  0.00    -0.582 OA
ATOM     37  O2S SGN d5702      65.339  35.822  39.586  0.00  0.00    -0.582 OA
ATOM     38  O3S SGN d5702      64.951  36.248  37.259  0.00  0.00    -0.582 OA
ENDBRANCH  33  35
ENDBRANCH   2  33
BRANCH   6  39
ATOM     39  O1  SGN d5702      61.870  39.704  39.468  0.00  0.00    -0.369 OA
ATOM     40  H   SGN d5702      62.057  39.187  40.268  0.00  0.00     0.212 HD
ENDBRANCH   6  39
TORSDOF 14
ENDMDL
MODEL 3
REMARK VINA RESULT:      -4.9      0.562      1.325
REMARK  14 active torsions:
REMARK  status: ('A' for Active; 'I' for Inactive)
REMARK    1  A    between atoms: C5_1  and  C6_23 
REMARK    2  A    between atoms: S2_5  and  O6_7 
REMARK    3  A    between atoms: O1_6  and  C1_35 
REMARK    4  A    between atoms: O6_7  and  C6_21 
REMARK    5  A    between atoms: O2_9  and  C2_28 
REMARK    6  A    between atoms: O2_9  and  S_13 
REMARK    7  A    between atoms: C3_10  and  O3_20 
REMARK    8  A    between atoms: C1_11  and  O4_12 
REMARK    9  A    between atoms: O4_12  and  C4_19 
REMARK   10  A    between atoms: C2_15  and  N_29 
REMARK   11  A    between atoms: C5_17  and  C6_21 
REMARK   12  A    between atoms: C6_23  and  O61_33 
REMARK   13  A    between atoms: O3_24  and  C3_26 
REMARK   14  A    between atoms: S1_27  and  N_29 
ROOT
ATOM      1  O5  SGN d5702      61.034  39.535  37.338  0.00  0.00    -0.350 OA
ATOM      2  C2  SGN d5702      63.069  38.374  37.857  0.00  0.00     0.160 C 
ATOM      3  C5  SGN d5702      61.704  40.557  36.640  0.00  0.00     0.181 C 
ATOM      4  C4  SGN d5702      63.012  39.992  36.052  0.00  0.00     0.186 C 
ATOM      5  C3  SGN d5702      63.878  39.483  37.236  0.00  0.00     0.173 C 
ATOM      6  C1  SGN d5702      61.761  38.916  38.402  0.00  0.00     0.278 C 
ENDROOT
BRANCH   4   7
ATOM      7  O4  SGN d5702      63.643  41.088  35.336  0.00  0.00    -0.348 OA
BRANCH   7   8
ATOM      8  C1  IDU d1623      64.561  40.973  34.268  0.00  0.00     0.294 C 
ATOM      9  O5  IDU d1623      63.967  40.439  33.042  0.00  0.00    -0.343 OA
ATOM     10  C5  IDU d1623      64.941  40.195  31.965  0.00  0.00     0.224 C 
ATOM     11  C4  IDU d1623      65.607  41.528  31.588  0.00  0.00     0.077 C 
ATOM     12  C3  IDU d1623      66.270  42.143  32.831  0.00  0.00     0.156 C 
ATOM     13  C2  IDU d1623      65.182  42.330  33.899  0.00  0.00     0.228 C 
BRANCH  10  14
ATOM     14  C6  IDU d1623      64.274  39.637  30.737  0.00  0.00     0.170 C 
ATOM     15  O62 IDU d1623      63.590  40.405  30.043  0.00  0.00    -0.648 OA
BRANCH  14  16
ATOM     16  O61 IDU d1623      64.446  38.428  30.482  0.00  0.00    -0.774 OA
ENDBRANCH  14  16
ENDBRANCH  10  14
BRANCH  12  18
ATOM     18  O3  IDU d1623      67.266  41.281  33.305  0.00  0.00    -0.393 OA
ATOM     19  H   IDU d1623      67.480  41.507  34.223  0.00  0.00     0.210 HD
ENDBRANCH  12  18
BRANCH  13  20
ATOM     20  O2  IDU d1623      64.151  43.145  33.392  0.00  0.00    -0.244 OA
BRANCH  20  21
ATOM     21  S   IDU d1623      64.340  44.864  33.500  0.00  0.00     0.252 S 
ATOM     22  O3S IDU d1623      65.488  45.286  32.788  0.00  0.00    -0.572 OA
ATOM     23  O1S IDU d1623      64.378  45.187  34.894  0.00  0.00    -0.572 OA
ATOM     24  O2S IDU d1623      63.213  45.547  32.884  0.00  0.00    -0.572 OA
ENDBRANCH  20  21
ENDBRANCH  13  20
ENDBRANCH   7   8
ENDBRANCH   4   7
BRANCH   3  25
ATOM     25  C6  SGN d5702      60.773  41.050  35.576  0.00  0.00     0.227 C 
BRANCH  25  26
ATOM     26  O6  SGN d5702      59.996  42.030  36.248  0.00  0.00    -0.254 OA
BRANCH  26  27
ATOM     27  S2  SGN d5702      60.598  43.651  36.332  0.00  0.00     0.251 S 
ATOM     28  O4S SGN d5702      61.491  43.817  37.433  0.00  0.00    -0.572 OA
ATOM     29  O5S SGN d5702      59.484  44.542  36.490  0.00  0.00    -0.572 OA
ATOM     30  O6S SGN d5702      61.313  43.851  35.105  0.00  0.00    -0.572 OA
ENDBRANCH  26  27
ENDBRANCH  25  26
ENDBRANCH   3  25
BRANCH   5  31
ATOM     31  O3  SGN d5702      65.082  38.943  36.750  0.00  0.00    -0.391 OA
ATOM     32  H   SGN d5702      65.360  39.431  35.960  0.00  0.00     0.210 HD
ENDBRANCH   5  31
BRANCH   2  33
ATOM     33  N   SGN d5702      63.781  37.795  38.948  0.00  0.00    -0.189 NA
ATOM     34  H   SGN d5702      63.215  37.880  39.793  0.00  0.00     0.143 HD
BRANCH  33  35
ATOM     35  S1  SGN d5702      64.140  36.087  38.672  0.00  0.00     0.183 S 
ATOM     36  O1S SGN d5702      64.753  35.954  37.365  0.00  0.00    -0.582 OA
ATOM     37  O2S SGN d5702      62.914  35.359  38.647  0.00  0.00    -0.582 OA
ATOM     38  O3S SGN d5702      65.006  35.698  39.768  0.00  0.00    -0.582 OA
ENDBRANCH  33  35
ENDBRANCH   2  33
BRANCH   6  39
ATOM     39  O1  SGN d5702      61.950  39.822  39.463  0.00  0.00    -0.369 OA
ATOM     40  H   SGN d5702      62.795  39.635  39.901  0.00  0.00     0.212 HD
ENDBRANCH   6  39
TORSDOF 14
ENDMDL
MODEL 4
REMARK VINA RESULT:      -4.7      0.742      1.313
REMARK  14 active torsions:
REMARK  status: ('A' for Active; 'I' for Inactive)
REMARK    1  A    between atoms: C5_1  and  C6_23 
REMARK    2  A    between atoms: S2_5  and  O6_7 
REMARK    3  A    between atoms: O1_6  and  C1_35 
REMARK    4  A    between atoms: O6_7  and  C6_21 
REMARK    5  A    between atoms: O2_9  and  C2_28 
REMARK    6  A    between atoms: O2_9  and  S_13 
REMARK    7  A    between atoms: C3_10  and  O3_20 
REMARK    8  A    between atoms: C1_11  and  O4_12 
REMARK    9  A    between atoms: O4_12  and  C4_19 
REMARK   10  A    between atoms: C2_15  and  N_29 
REMARK   11  A    between atoms: C5_17  and  C6_21 
REMARK   12  A    between atoms: C6_23  and  O61_33 
REMARK   13  A    between atoms: O3_24  and  C3_26 
REMARK   14  A    between atoms: S1_27  and  N_29 
ROOT
ATOM      1  O5  SGN d5702      61.159  39.446  37.329  0.00  0.00    -0.350 OA
ATOM      2  C2  SGN d5702      63.292  38.462  37.824  0.00  0.00     0.160 C 
ATOM      3  C5  SGN d5702      61.732  40.525  36.631  0.00  0.00     0.181 C 
ATOM      4  C4  SGN d5702      63.079  40.077  36.029  0.00  0.00     0.186 C 
ATOM      5  C3  SGN d5702      63.996  39.640  37.202  0.00  0.00     0.173 C 
ATOM      6  C1  SGN d5702      61.947  38.887  38.383  0.00  0.00     0.278 C 
ENDROOT
BRANCH   4   7
ATOM      7  O4  SGN d5702      63.606  41.228  35.313  0.00  0.00    -0.348 OA
BRANCH   7   8
ATOM      8  C1  IDU d1623      64.495  41.196  34.216  0.00  0.00     0.294 C 
ATOM      9  O5  IDU d1623      63.867  40.761  32.967  0.00  0.00    -0.343 OA
ATOM     10  C5  IDU d1623      64.811  40.602  31.849  0.00  0.00     0.224 C 
ATOM     11  C4  IDU d1623      65.472  41.960  31.561  0.00  0.00     0.077 C 
ATOM     12  C3  IDU d1623      66.170  42.474  32.830  0.00  0.00     0.156 C 
ATOM     13  C2  IDU d1623      65.111  42.577  33.938  0.00  0.00     0.228 C 
BRANCH  10  14
ATOM     14  C6  IDU d1623      64.110  40.145  30.598  0.00  0.00     0.170 C 
ATOM     15  O62 IDU d1623      64.096  38.930  30.346  0.00  0.00    -0.648 OA
BRANCH  14  16
ATOM     16  O61 IDU d1623      63.579  41.016  29.879  0.00  0.00    -0.774 OA
ENDBRANCH  14  16
ENDBRANCH  10  14
BRANCH  12  18
ATOM     18  O3  IDU d1623      67.175  41.574  33.207  0.00  0.00    -0.393 OA
ATOM     19  H   IDU d1623      68.040  42.006  33.131  0.00  0.00     0.210 HD
ENDBRANCH  12  18
BRANCH  13  20
ATOM     20  O2  IDU d1623      64.070  43.431  33.525  0.00  0.00    -0.244 OA
BRANCH  20  21
ATOM     21  S   IDU d1623      64.262  45.134  33.778  0.00  0.00     0.252 S 
ATOM     22  O3S IDU d1623      63.487  45.867  32.848  0.00  0.00    -0.572 OA
ATOM     23  O1S IDU d1623      65.665  45.408  33.698  0.00  0.00    -0.572 OA
ATOM     24  O2S IDU d1623      63.777  45.519  35.095  0.00  0.00    -0.572 OA
ENDBRANCH  20  21
ENDBRANCH  13  20
ENDBRANCH   7   8
ENDBRANCH   4   7
BRANCH   3  25
ATOM     25  C6  SGN d5702      60.752  40.940  35.578  0.00  0.00     0.227 C 
BRANCH  25  26
ATOM     26  O6  SGN d5702      59.961  41.920  36.234  0.00  0.00    -0.254 OA
BRANCH  26  27
ATOM     27  S2  SGN d5702      60.523  43.557  36.259  0.00  0.00     0.251 S 
ATOM     28  O4S SGN d5702      59.441  44.475  36.415  0.00  0.00    -0.572 OA
ATOM     29  O5S SGN d5702      61.195  43.826  35.020  0.00  0.00    -0.572 OA
ATOM     30  O6S SGN d5702      61.386  43.642  37.401  0.00  0.00    -0.572 OA
ENDBRANCH  26  27
ENDBRANCH  25  26
ENDBRANCH   3  25
BRANCH   5  31
ATOM     31  O3  SGN d5702      65.238  39.208  36.703  0.00  0.00    -0.391 OA
ATOM     32  H   SGN d5702      65.208  39.189  35.734  0.00  0.00     0.210 HD
ENDBRANCH   5  31
BRANCH   2  33
ATOM     33  N   SGN d5702      64.061  37.941  38.906  0.00  0.00    -0.189 NA
ATOM     34  H   SGN d5702      63.498  37.975  39.756  0.00  0.00     0.143 HD
BRANCH  33  35
ATOM     35  S1  SGN d5702      64.560  36.272  38.618  0.00  0.00     0.183 S 
ATOM     36  O1S SGN d5702      65.284  35.802  39.783  0.00  0.00    -0.582 OA
ATOM     37  O2S SGN d5702      65.462  36.246  37.513  0.00  0.00    -0.582 OA
ATOM     38  O3S SGN d5702      63.331  35.546  38.361  0.00  0.00    -0.582 OA
ENDBRANCH  33  35
ENDBRANCH   2  33
BRANCH   6  39
ATOM     39  O1  SGN d5702      62.066  39.800  39.448  0.00  0.00    -0.369 OA
ATOM     40  H   SGN d5702      61.668  40.647  39.192  0.00  0.00     0.212 HD
ENDBRANCH   6  39
TORSDOF 14
ENDMDL
MODEL 5
REMARK VINA RESULT:      -4.4      3.296      7.953
REMARK  14 active torsions:
REMARK  status: ('A' for Active; 'I' for Inactive)
REMARK    1  A    between atoms: C5_1  and  C6_23 
REMARK    2  A    between atoms: S2_5  and  O6_7 
REMARK    3  A    between atoms: O1_6  and  C1_35 
REMARK    4  A    between atoms: O6_7  and  C6_21 
REMARK    5  A    between atoms: O2_9  and  C2_28 
REMARK    6  A    between atoms: O2_9  and  S_13 
REMARK    7  A    between atoms: C3_10  and  O3_20 
REMARK    8  A    between atoms: C1_11  and  O4_12 
REMARK    9  A    between atoms: O4_12  and  C4_19 
REMARK   10  A    between atoms: C2_15  and  N_29 
REMARK   11  A    between atoms: C5_17  and  C6_21 
REMARK   12  A    between atoms: C6_23  and  O61_33 
REMARK   13  A    between atoms: O3_24  and  C3_26 
REMARK   14  A    between atoms: S1_27  and  N_29 
ROOT
ATOM      1  O5  SGN d5702      63.982  41.758  32.543  0.00  0.00    -0.350 OA
ATOM      2  C2  SGN d5702      64.748  44.017  32.278  0.00  0.00     0.160 C 
ATOM      3  C5  SGN d5702      64.241  41.750  33.926  0.00  0.00     0.181 C 
ATOM      4  C4  SGN d5702      64.123  43.188  34.469  0.00  0.00     0.186 C 
ATOM      5  C3  SGN d5702      65.169  44.059  33.724  0.00  0.00     0.173 C 
ATOM      6  C1  SGN d5702      64.823  42.597  31.748  0.00  0.00     0.278 C 
ENDROOT
BRANCH   4   7
ATOM      7  O4  SGN d5702      64.386  43.106  35.897  0.00  0.00    -0.348 OA
BRANCH   7   8
ATOM      8  C1  IDU d1623      63.927  44.005  36.886  0.00  0.00     0.294 C 
ATOM      9  O5  IDU d1623      62.469  44.137  36.924  0.00  0.00    -0.343 OA
ATOM     10  C5  IDU d1623      61.989  45.164  37.862  0.00  0.00     0.224 C 
ATOM     11  C4  IDU d1623      62.435  44.785  39.283  0.00  0.00     0.077 C 
ATOM     12  C3  IDU d1623      63.965  44.644  39.324  0.00  0.00     0.156 C 
ATOM     13  C2  IDU d1623      64.364  43.575  38.295  0.00  0.00     0.228 C 
BRANCH  10  14
ATOM     14  C6  IDU d1623      60.487  45.261  37.849  0.00  0.00     0.170 C 
ATOM     15  O62 IDU d1623      59.920  45.688  38.866  0.00  0.00    -0.648 OA
BRANCH  14  16
ATOM     16  O61 IDU d1623      59.892  44.904  36.813  0.00  0.00    -0.774 OA
ENDBRANCH  14  16
ENDBRANCH  10  14
BRANCH  12  18
ATOM     18  O3  IDU d1623      64.556  45.871  38.998  0.00  0.00    -0.393 OA
ATOM     19  H   IDU d1623      63.888  46.573  39.041  0.00  0.00     0.210 HD
ENDBRANCH  12  18
BRANCH  13  20
ATOM     20  O2  IDU d1623      63.714  42.362  38.591  0.00  0.00    -0.244 OA
BRANCH  20  21
ATOM     21  S   IDU d1623      64.672  40.921  38.679  0.00  0.00     0.252 S 
ATOM     22  O3S IDU d1623      64.517  40.294  39.937  0.00  0.00    -0.572 OA
ATOM     23  O1S IDU d1623      66.021  41.305  38.391  0.00  0.00    -0.572 OA
ATOM     24  O2S IDU d1623      64.234  39.949  37.689  0.00  0.00    -0.572 OA
ENDBRANCH  20  21
ENDBRANCH  13  20
ENDBRANCH   7   8
ENDBRANCH   4   7
BRANCH   3  25
ATOM     25  C6  SGN d5702      63.248  40.824  34.557  0.00  0.00     0.227 C 
BRANCH  25  26
ATOM     26  O6  SGN d5702      62.118  41.654  34.776  0.00  0.00    -0.254 OA
BRANCH  26  27
ATOM     27  S2  SGN d5702      60.728  40.974  35.551  0.00  0.00     0.251 S 
ATOM     28  O4S SGN d5702      61.031  40.539  36.876  0.00  0.00    -0.572 OA
ATOM     29  O5S SGN d5702      60.281  39.851  34.777  0.00  0.00    -0.572 OA
ATOM     30  O6S SGN d5702      59.769  42.038  35.608  0.00  0.00    -0.572 OA
ENDBRANCH  26  27
ENDBRANCH  25  26
ENDBRANCH   3  25
BRANCH   5  31
ATOM     31  O3  SGN d5702      65.092  45.390  34.175  0.00  0.00    -0.391 OA
ATOM     32  H   SGN d5702      65.981  45.707  34.398  0.00  0.00     0.210 HD
ENDBRANCH   5  31
BRANCH   2  33
ATOM     33  N   SGN d5702      65.621  44.818  31.485  0.00  0.00    -0.189 NA
ATOM     34  H   SGN d5702      66.023  44.237  30.749  0.00  0.00     0.143 HD
BRANCH  33  35
ATOM     35  S1  SGN d5702      64.776  46.179  30.740  0.00  0.00     0.183 S 
ATOM     36  O1S SGN d5702      64.118  46.938  31.785  0.00  0.00    -0.582 OA
ATOM     37  O2S SGN d5702      63.761  45.671  29.875  0.00  0.00    -0.582 OA
ATOM     38  O3S SGN d5702      65.801  46.922  30.034  0.00  0.00    -0.582 OA
ENDBRANCH  33  35
ENDBRANCH   2  33
BRANCH   6  39
ATOM     39  O1  SGN d5702      66.139  42.097  31.723  0.00  0.00    -0.369 OA
ATOM     40  H   SGN d5702      66.115  41.127  31.713  0.00  0.00     0.212 HD
ENDBRANCH   6  39
TORSDOF 14
ENDMDL
MODEL 6
REMARK VINA RESULT:      -4.3      1.639      2.329
REMARK  14 active torsions:
REMARK  status: ('A' for Active; 'I' for Inactive)
REMARK    1  A    between atoms: C5_1  and  C6_23 
REMARK    2  A    between atoms: S2_5  and  O6_7 
REMARK    3  A    between atoms: O1_6  and  C1_35 
REMARK    4  A    between atoms: O6_7  and  C6_21 
REMARK    5  A    between atoms: O2_9  and  C2_28 
REMARK    6  A    between atoms: O2_9  and  S_13 
REMARK    7  A    between atoms: C3_10  and  O3_20 
REMARK    8  A    between atoms: C1_11  and  O4_12 
REMARK    9  A    between atoms: O4_12  and  C4_19 
REMARK   10  A    between atoms: C2_15  and  N_29 
REMARK   11  A    between atoms: C5_17  and  C6_21 
REMARK   12  A    between atoms: C6_23  and  O61_33 
REMARK   13  A    between atoms: O3_24  and  C3_26 
REMARK   14  A    between atoms: S1_27  and  N_29 
ROOT
ATOM      1  O5  SGN d5702      61.088  39.246  37.109  0.00  0.00    -0.350 OA
ATOM      2  C2  SGN d5702      63.184  38.335  37.846  0.00  0.00     0.160 C 
ATOM      3  C5  SGN d5702      61.657  40.489  36.777  0.00  0.00     0.181 C 
ATOM      4  C4  SGN d5702      63.138  40.282  36.402  0.00  0.00     0.186 C 
ATOM      5  C3  SGN d5702      63.854  39.667  37.635  0.00  0.00     0.173 C 
ATOM      6  C1  SGN d5702      61.715  38.530  38.177  0.00  0.00     0.278 C 
ENDROOT
BRANCH   4   7
ATOM      7  O4  SGN d5702      63.658  41.595  36.057  0.00  0.00    -0.348 OA
BRANCH   7   8
ATOM      8  C1  IDU d1623      64.565  41.890  35.015  0.00  0.00     0.294 C 
ATOM      9  O5  IDU d1623      63.926  42.018  33.704  0.00  0.00    -0.343 OA
ATOM     10  C5  IDU d1623      64.876  42.198  32.594  0.00  0.00     0.224 C 
ATOM     11  C4  IDU d1623      65.671  43.493  32.826  0.00  0.00     0.077 C 
ATOM     12  C3  IDU d1623      66.385  43.424  34.185  0.00  0.00     0.156 C 
ATOM     13  C2  IDU d1623      65.316  43.208  35.266  0.00  0.00     0.228 C 
BRANCH  10  14
ATOM     14  C6  IDU d1623      64.163  42.313  31.274  0.00  0.00     0.170 C 
ATOM     15  O62 IDU d1623      63.907  41.269  30.654  0.00  0.00    -0.648 OA
BRANCH  14  16
ATOM     16  O61 IDU d1623      63.869  43.457  30.871  0.00  0.00    -0.774 OA
ENDBRANCH  14  16
ENDBRANCH  10  14
BRANCH  12  18
ATOM     18  O3  IDU d1623      67.291  42.356  34.183  0.00  0.00    -0.393 OA
ATOM     19  H   IDU d1623      66.802  41.518  34.204  0.00  0.00     0.210 HD
ENDBRANCH  12  18
BRANCH  13  20
ATOM     20  O2  IDU d1623      64.372  44.251  35.219  0.00  0.00    -0.244 OA
BRANCH  20  21
ATOM     21  S   IDU d1623      64.511  45.533  36.376  0.00  0.00     0.252 S 
ATOM     22  O3S IDU d1623      64.702  45.012  37.678  0.00  0.00    -0.572 OA
ATOM     23  O1S IDU d1623      63.333  46.335  36.246  0.00  0.00    -0.572 OA
ATOM     24  O2S IDU d1623      65.679  46.355  36.099  0.00  0.00    -0.572 OA
ENDBRANCH  20  21
ENDBRANCH  13  20
ENDBRANCH   7   8
ENDBRANCH   4   7
BRANCH   3  25
ATOM     25  C6  SGN d5702      60.860  41.051  35.642  0.00  0.00     0.227 C 
BRANCH  25  26
ATOM     26  O6  SGN d5702      60.037  42.024  36.268  0.00  0.00    -0.254 OA
BRANCH  26  27
ATOM     27  S2  SGN d5702      60.596  43.661  36.339  0.00  0.00     0.251 S 
ATOM     28  O4S SGN d5702      61.476  43.863  37.444  0.00  0.00    -0.572 OA
ATOM     29  O5S SGN d5702      59.458  44.524  36.479  0.00  0.00    -0.572 OA
ATOM     30  O6S SGN d5702      61.315  43.867  35.115  0.00  0.00    -0.572 OA
ENDBRANCH  26  27
ENDBRANCH  25  26
ENDBRANCH   3  25
BRANCH   5  31
ATOM     31  O3  SGN d5702      65.211  39.445  37.339  0.00  0.00    -0.391 OA
ATOM     32  H   SGN d5702      65.473  40.001  36.588  0.00  0.00     0.210 HD
ENDBRANCH   5  31
BRANCH   2  33
ATOM     33  N   SGN d5702      63.782  37.649  38.943  0.00  0.00    -0.189 NA
ATOM     34  H   SGN d5702      63.061  37.439  39.634  0.00  0.00     0.143 HD
BRANCH  33  35
ATOM     35  S1  SGN d5702      64.546  36.138  38.440  0.00  0.00     0.183 S 
ATOM     36  O1S SGN d5702      65.355  36.402  37.266  0.00  0.00    -0.582 OA
ATOM     37  O2S SGN d5702      63.529  35.213  38.061  0.00  0.00    -0.582 OA
ATOM     38  O3S SGN d5702      65.311  35.697  39.590  0.00  0.00    -0.582 OA
ENDBRANCH  33  35
ENDBRANCH   2  33
BRANCH   6  39
ATOM     39  O1  SGN d5702      61.519  39.197  39.401  0.00  0.00    -0.369 OA
ATOM     40  H   SGN d5702      61.963  38.707  40.110  0.00  0.00     0.212 HD
ENDBRANCH   6  39
TORSDOF 14
ENDMDL
MODEL 7
REMARK VINA RESULT:      -4.3      1.220      1.646
REMARK  14 active torsions:
REMARK  status: ('A' for Active; 'I' for Inactive)
REMARK    1  A    between atoms: C5_1  and  C6_23 
REMARK    2  A    between atoms: S2_5  and  O6_7 
REMARK    3  A    between atoms: O1_6  and  C1_35 
REMARK    4  A    between atoms: O6_7  and  C6_21 
REMARK    5  A    between atoms: O2_9  and  C2_28 
REMARK    6  A    between atoms: O2_9  and  S_13 
REMARK    7  A    between atoms: C3_10  and  O3_20 
REMARK    8  A    between atoms: C1_11  and  O4_12 
REMARK    9  A    between atoms: O4_12  and  C4_19 
REMARK   10  A    between atoms: C2_15  and  N_29 
REMARK   11  A    between atoms: C5_17  and  C6_21 
REMARK   12  A    between atoms: C6_23  and  O61_33 
REMARK   13  A    between atoms: O3_24  and  C3_26 
REMARK   14  A    between atoms: S1_27  and  N_29 
ROOT
ATOM      1  O5  SGN d5702      61.127  39.370  37.318  0.00  0.00    -0.350 OA
ATOM      2  C2  SGN d5702      63.165  38.264  37.939  0.00  0.00     0.160 C 
ATOM      3  C5  SGN d5702      61.804  40.452  36.725  0.00  0.00     0.181 C 
ATOM      4  C4  SGN d5702      63.177  39.969  36.215  0.00  0.00     0.186 C 
ATOM      5  C3  SGN d5702      63.970  39.434  37.438  0.00  0.00     0.173 C 
ATOM      6  C1  SGN d5702      61.797  38.726  38.405  0.00  0.00     0.278 C 
ENDROOT
BRANCH   4   7
ATOM      7  O4  SGN d5702      63.813  41.125  35.604  0.00  0.00    -0.348 OA
BRANCH   7   8
ATOM      8  C1  IDU d1623      64.651  41.116  34.467  0.00  0.00     0.294 C 
ATOM      9  O5  IDU d1623      63.919  41.031  33.202  0.00  0.00    -0.343 OA
ATOM     10  C5  IDU d1623      64.786  40.892  32.021  0.00  0.00     0.224 C 
ATOM     11  C4  IDU d1623      65.693  42.129  31.923  0.00  0.00     0.077 C 
ATOM     12  C3  IDU d1623      66.509  42.274  33.217  0.00  0.00     0.156 C 
ATOM     13  C2  IDU d1623      65.519  42.383  34.386  0.00  0.00     0.228 C 
BRANCH  10  14
ATOM     14  C6  IDU d1623      63.978  40.799  30.755  0.00  0.00     0.170 C 
ATOM     15  O62 IDU d1623      63.693  39.671  30.324  0.00  0.00    -0.648 OA
BRANCH  14  16
ATOM     16  O61 IDU d1623      63.638  41.866  30.204  0.00  0.00    -0.774 OA
ENDBRANCH  14  16
ENDBRANCH  10  14
BRANCH  12  18
ATOM     18  O3  IDU d1623      67.327  41.150  33.382  0.00  0.00    -0.393 OA
ATOM     19  H   IDU d1623      68.258  41.417  33.328  0.00  0.00     0.210 HD
ENDBRANCH  12  18
BRANCH  13  20
ATOM     20  O2  IDU d1623      64.656  43.476  34.181  0.00  0.00    -0.244 OA
BRANCH  20  21
ATOM     21  S   IDU d1623      64.881  44.890  35.157  0.00  0.00     0.252 S 
ATOM     22  O3S IDU d1623      63.875  45.848  34.888  0.00  0.00    -0.572 OA
ATOM     23  O1S IDU d1623      66.208  45.362  34.898  0.00  0.00    -0.572 OA
ATOM     24  O2S IDU d1623      64.759  44.567  36.570  0.00  0.00    -0.572 OA
ENDBRANCH  20  21
ENDBRANCH  13  20
ENDBRANCH   7   8
ENDBRANCH   4   7
BRANCH   3  25
ATOM     25  C6  SGN d5702      60.937  40.962  35.617  0.00  0.00     0.227 C 
BRANCH  25  26
ATOM     26  O6  SGN d5702      60.143  41.954  36.251  0.00  0.00    -0.254 OA
BRANCH  26  27
ATOM     27  S2  SGN d5702      60.714  43.588  36.267  0.00  0.00     0.251 S 
ATOM     28  O4S SGN d5702      61.431  43.899  35.072  0.00  0.00    -0.572 OA
ATOM     29  O5S SGN d5702      61.585  43.754  37.395  0.00  0.00    -0.572 OA
ATOM     30  O6S SGN d5702      59.534  44.399  36.339  0.00  0.00    -0.572 OA
ENDBRANCH  26  27
ENDBRANCH  25  26
ENDBRANCH   3  25
BRANCH   5  31
ATOM     31  O3  SGN d5702      65.231  38.967  37.022  0.00  0.00    -0.391 OA
ATOM     32  H   SGN d5702      65.283  38.995  36.054  0.00  0.00     0.210 HD
ENDBRANCH   5  31
BRANCH   2  33
ATOM     33  N   SGN d5702      63.816  37.657  39.053  0.00  0.00    -0.189 NA
ATOM     34  H   SGN d5702      63.201  37.715  39.865  0.00  0.00     0.143 HD
BRANCH  33  35
ATOM     35  S1  SGN d5702      64.201  35.960  38.750  0.00  0.00     0.183 S 
ATOM     36  O1S SGN d5702      62.983  35.275  38.366  0.00  0.00    -0.582 OA
ATOM     37  O2S SGN d5702      64.662  35.370  39.963  0.00  0.00    -0.582 OA
ATOM     38  O3S SGN d5702      65.213  35.980  37.711  0.00  0.00    -0.582 OA
ENDBRANCH  33  35
ENDBRANCH   2  33
BRANCH   6  39
ATOM     39  O1  SGN d5702      61.865  39.583  39.521  0.00  0.00    -0.369 OA
ATOM     40  H   SGN d5702      61.528  40.459  39.276  0.00  0.00     0.212 HD
ENDBRANCH   6  39
TORSDOF 14
ENDMDL
MODEL 8
REMARK VINA RESULT:      -4.3      3.886      6.550
REMARK  14 active torsions:
REMARK  status: ('A' for Active; 'I' for Inactive)
REMARK    1  A    between atoms: C5_1  and  C6_23 
REMARK    2  A    between atoms: S2_5  and  O6_7 
REMARK    3  A    between atoms: O1_6  and  C1_35 
REMARK    4  A    between atoms: O6_7  and  C6_21 
REMARK    5  A    between atoms: O2_9  and  C2_28 
REMARK    6  A    between atoms: O2_9  and  S_13 
REMARK    7  A    between atoms: C3_10  and  O3_20 
REMARK    8  A    between atoms: C1_11  and  O4_12 
REMARK    9  A    between atoms: O4_12  and  C4_19 
REMARK   10  A    between atoms: C2_15  and  N_29 
REMARK   11  A    between atoms: C5_17  and  C6_21 
REMARK   12  A    between atoms: C6_23  and  O61_33 
REMARK   13  A    between atoms: O3_24  and  C3_26 
REMARK   14  A    between atoms: S1_27  and  N_29 
ROOT
ATOM      1  O5  SGN d5702      66.693  45.551  36.664  0.00  0.00    -0.350 OA
ATOM      2  C2  SGN d5702      67.246  44.073  38.473  0.00  0.00     0.160 C 
ATOM      3  C5  SGN d5702      65.973  44.560  35.971  0.00  0.00     0.181 C 
ATOM      4  C4  SGN d5702      65.403  43.549  36.987  0.00  0.00     0.186 C 
ATOM      5  C3  SGN d5702      66.602  42.921  37.747  0.00  0.00     0.173 C 
ATOM      6  C1  SGN d5702      67.774  45.092  37.480  0.00  0.00     0.278 C 
ENDROOT
BRANCH   4   7
ATOM      7  O4  SGN d5702      64.663  42.567  36.210  0.00  0.00    -0.348 OA
BRANCH   7   8
ATOM      8  C1  IDU d1623      63.339  42.136  36.449  0.00  0.00     0.294 C 
ATOM      9  O5  IDU d1623      62.328  43.140  36.114  0.00  0.00    -0.343 OA
ATOM     10  C5  IDU d1623      60.957  42.749  36.479  0.00  0.00     0.224 C 
ATOM     11  C4  IDU d1623      60.583  41.473  35.708  0.00  0.00     0.077 C 
ATOM     12  C3  IDU d1623      61.598  40.363  36.026  0.00  0.00     0.156 C 
ATOM     13  C2  IDU d1623      62.992  40.878  35.638  0.00  0.00     0.228 C 
BRANCH  10  14
ATOM     14  C6  IDU d1623      59.966  43.823  36.120  0.00  0.00     0.170 C 
ATOM     15  O62 IDU d1623      59.436  44.462  37.042  0.00  0.00    -0.648 OA
BRANCH  14  16
ATOM     16  O61 IDU d1623      59.728  44.013  34.910  0.00  0.00    -0.774 OA
ENDBRANCH  14  16
ENDBRANCH  10  14
BRANCH  12  18
ATOM     18  O3  IDU d1623      61.557  40.070  37.394  0.00  0.00    -0.393 OA
ATOM     19  H   IDU d1623      60.999  40.721  37.848  0.00  0.00     0.210 HD
ENDBRANCH  12  18
BRANCH  13  20
ATOM     20  O2  IDU d1623      63.008  41.233  34.275  0.00  0.00    -0.244 OA
BRANCH  20  21
ATOM     21  S   IDU d1623      64.358  40.730  33.314  0.00  0.00     0.252 S 
ATOM     22  O3S IDU d1623      63.926  40.263  32.050  0.00  0.00    -0.572 OA
ATOM     23  O1S IDU d1623      65.065  39.746  34.079  0.00  0.00    -0.572 OA
ATOM     24  O2S IDU d1623      65.247  41.850  33.045  0.00  0.00    -0.572 OA
ENDBRANCH  20  21
ENDBRANCH  13  20
ENDBRANCH   7   8
ENDBRANCH   4   7
BRANCH   3  25
ATOM     25  C6  SGN d5702      64.896  45.254  35.199  0.00  0.00     0.227 C 
BRANCH  25  26
ATOM     26  O6  SGN d5702      65.282  45.059  33.847  0.00  0.00    -0.254 OA
BRANCH  26  27
ATOM     27  S2  SGN d5702      64.090  45.252  32.607  0.00  0.00     0.251 S 
ATOM     28  O4S SGN d5702      64.487  44.605  31.399  0.00  0.00    -0.572 OA
ATOM     29  O5S SGN d5702      63.920  46.655  32.356  0.00  0.00    -0.572 OA
ATOM     30  O6S SGN d5702      62.908  44.622  33.119  0.00  0.00    -0.572 OA
ENDBRANCH  26  27
ENDBRANCH  25  26
ENDBRANCH   3  25
BRANCH   5  31
ATOM     31  O3  SGN d5702      66.132  41.997  38.699  0.00  0.00    -0.391 OA
ATOM     32  H   SGN d5702      66.340  42.318  39.591  0.00  0.00     0.210 HD
ENDBRANCH   5  31
BRANCH   2  33
ATOM     33  N   SGN d5702      68.352  43.614  39.246  0.00  0.00    -0.189 NA
ATOM     34  H   SGN d5702      69.192  44.113  38.948  0.00  0.00     0.143 HD
BRANCH  33  35
ATOM     35  S1  SGN d5702      68.110  43.887  40.974  0.00  0.00     0.183 S 
ATOM     36  O1S SGN d5702      66.954  43.123  41.401  0.00  0.00    -0.582 OA
ATOM     37  O2S SGN d5702      67.814  45.266  41.184  0.00  0.00    -0.582 OA
ATOM     38  O3S SGN d5702      69.350  43.473  41.602  0.00  0.00    -0.582 OA
ENDBRANCH  33  35
ENDBRANCH   2  33
BRANCH   6  39
ATOM     39  O1  SGN d5702      68.814  44.582  36.680  0.00  0.00    -0.369 OA
ATOM     40  H   SGN d5702      69.197  43.800  37.109  0.00  0.00     0.212 HD
ENDBRANCH   6  39
TORSDOF 14
ENDMDL
MODEL 9
REMARK VINA RESULT:      -4.2      3.833      8.660
REMARK  14 active torsions:
REMARK  status: ('A' for Active; 'I' for Inactive)
REMARK    1  A    between atoms: C5_1  and  C6_23 
REMARK    2  A    between atoms: S2_5  and  O6_7 
REMARK    3  A    between atoms: O1_6  and  C1_35 
REMARK    4  A    between atoms: O6_7  and  C6_21 
REMARK    5  A    between atoms: O2_9  and  C2_28 
REMARK    6  A    between atoms: O2_9  and  S_13 
REMARK    7  A    between atoms: C3_10  and  O3_20 
REMARK    8  A    between atoms: C1_11  and  O4_12 
REMARK    9  A    between atoms: O4_12  and  C4_19 
REMARK   10  A    between atoms: C2_15  and  N_29 
REMARK   11  A    between atoms: C5_17  and  C6_21 
REMARK   12  A    between atoms: C6_23  and  O61_33 
REMARK   13  A    between atoms: O3_24  and  C3_26 
REMARK   14  A    between atoms: S1_27  and  N_29 
ROOT
ATOM      1  O5  SGN d5702      62.106  43.876  34.504  0.00  0.00    -0.350 OA
ATOM      2  C2  SGN d5702      64.271  44.912  34.553  0.00  0.00     0.160 C 
ATOM      3  C5  SGN d5702      62.291  43.253  35.752  0.00  0.00     0.181 C 
ATOM      4  C4  SGN d5702      63.258  44.102  36.601  0.00  0.00     0.186 C 
ATOM      5  C3  SGN d5702      64.604  44.191  35.832  0.00  0.00     0.173 C 
ATOM      6  C1  SGN d5702      63.288  44.100  33.730  0.00  0.00     0.278 C 
ENDROOT
BRANCH   4   7
ATOM      7  O4  SGN d5702      63.391  43.414  37.875  0.00  0.00    -0.348 OA
BRANCH   7   8
ATOM      8  C1  IDU d1623      63.345  44.008  39.156  0.00  0.00     0.294 C 
ATOM      9  O5  IDU d1623      62.055  44.626  39.467  0.00  0.00    -0.343 OA
ATOM     10  C5  IDU d1623      62.037  45.357  40.744  0.00  0.00     0.224 C 
ATOM     11  C4  IDU d1623      62.341  44.371  41.884  0.00  0.00     0.077 C 
ATOM     12  C3  IDU d1623      63.696  43.692  41.633  0.00  0.00     0.156 C 
ATOM     13  C2  IDU d1623      63.621  42.985  40.270  0.00  0.00     0.228 C 
BRANCH  10  14
ATOM     14  C6  IDU d1623      60.692  45.977  41.004  0.00  0.00     0.170 C 
ATOM     15  O62 IDU d1623      60.359  46.960  40.324  0.00  0.00    -0.648 OA
BRANCH  14  16
ATOM     16  O61 IDU d1623      59.980  45.469  41.895  0.00  0.00    -0.774 OA
ENDBRANCH  14  16
ENDBRANCH  10  14
BRANCH  12  18
ATOM     18  O3  IDU d1623      64.708  44.660  41.617  0.00  0.00    -0.393 OA
ATOM     19  H   IDU d1623      65.522  44.271  41.261  0.00  0.00     0.210 HD
ENDBRANCH  12  18
BRANCH  13  20
ATOM     20  O2  IDU d1623      62.559  42.061  40.271  0.00  0.00    -0.244 OA
BRANCH  20  21
ATOM     21  S   IDU d1623      62.902  40.423  40.719  0.00  0.00     0.252 S 
ATOM     22  O3S IDU d1623      62.515  39.532  39.690  0.00  0.00    -0.572 OA
ATOM     23  O1S IDU d1623      62.234  40.187  41.963  0.00  0.00    -0.572 OA
ATOM     24  O2S IDU d1623      64.332  40.226  40.903  0.00  0.00    -0.572 OA
ENDBRANCH  20  21
ENDBRANCH  13  20
ENDBRANCH   7   8
ENDBRANCH   4   7
BRANCH   3  25
ATOM     25  C6  SGN d5702      60.941  43.129  36.387  0.00  0.00     0.227 C 
BRANCH  25  26
ATOM     26  O6  SGN d5702      60.263  42.213  35.540  0.00  0.00    -0.254 OA
BRANCH  26  27
ATOM     27  S2  SGN d5702      60.847  40.587  35.439  0.00  0.00     0.251 S 
ATOM     28  O4S SGN d5702      59.923  39.745  34.751  0.00  0.00    -0.572 OA
ATOM     29  O5S SGN d5702      61.038  40.089  36.771  0.00  0.00    -0.572 OA
ATOM     30  O6S SGN d5702      62.065  40.671  34.687  0.00  0.00    -0.572 OA
ENDBRANCH  26  27
ENDBRANCH  25  26
ENDBRANCH   3  25
BRANCH   5  31
ATOM     31  O3  SGN d5702      65.521  44.970  36.562  0.00  0.00    -0.391 OA
ATOM     32  H   SGN d5702      65.188  45.878  36.634  0.00  0.00     0.210 HD
ENDBRANCH   5  31
BRANCH   2  33
ATOM     33  N   SGN d5702      65.447  45.088  33.765  0.00  0.00    -0.189 NA
ATOM     34  H   SGN d5702      65.796  44.172  33.483  0.00  0.00     0.143 HD
BRANCH  33  35
ATOM     35  S1  SGN d5702      65.133  46.048  32.316  0.00  0.00     0.183 S 
ATOM     36  O1S SGN d5702      64.847  45.145  31.219  0.00  0.00    -0.582 OA
ATOM     37  O2S SGN d5702      66.315  46.772  31.979  0.00  0.00    -0.582 OA
ATOM     38  O3S SGN d5702      64.021  46.913  32.666  0.00  0.00    -0.582 OA
ENDBRANCH  33  35
ENDBRANCH   2  33
BRANCH   6  39
ATOM     39  O1  SGN d5702      63.829  42.878  33.289  0.00  0.00    -0.369 OA
ATOM     40  H   SGN d5702      64.442  42.536  33.959  0.00  0.00     0.212 HD
ENDBRANCH   6  39
TORSDOF 14
ENDMDL
MODEL 10
REMARK VINA RESULT:      -4.1      2.440      3.441
REMARK  14 active torsions:
REMARK  status: ('A' for Active; 'I' for Inactive)
REMARK    1  A    between atoms: C5_1  and  C6_23 
REMARK    2  A    between atoms: S2_5  and  O6_7 
REMARK    3  A    between atoms: O1_6  and  C1_35 
REMARK    4  A    between atoms: O6_7  and  C6_21 
REMARK    5  A    between atoms: O2_9  and  C2_28 
REMARK    6  A    between atoms: O2_9  and  S_13 
REMARK    7  A    between atoms: C3_10  and  O3_20 
REMARK    8  A    between atoms: C1_11  and  O4_12 
REMARK    9  A    between atoms: O4_12  and  C4_19 
REMARK   10  A    between atoms: C2_15  and  N_29 
REMARK   11  A    between atoms: C5_17  and  C6_21 
REMARK   12  A    between atoms: C6_23  and  O61_33 
REMARK   13  A    between atoms: O3_24  and  C3_26 
REMARK   14  A    between atoms: S1_27  and  N_29 
ROOT
ATOM      1  O5  SGN d5702      61.959  38.580  38.583  0.00  0.00    -0.350 OA
ATOM      2  C2  SGN d5702      63.317  36.658  38.109  0.00  0.00     0.160 C 
ATOM      3  C5  SGN d5702      62.986  39.483  38.250  0.00  0.00     0.181 C 
ATOM      4  C4  SGN d5702      63.916  38.828  37.209  0.00  0.00     0.186 C 
ATOM      5  C3  SGN d5702      64.507  37.544  37.850  0.00  0.00     0.173 C 
ATOM      6  C1  SGN d5702      62.377  37.315  39.102  0.00  0.00     0.278 C 
ENDROOT
BRANCH   4   7
ATOM      7  O4  SGN d5702      64.938  39.815  36.899  0.00  0.00    -0.348 OA
BRANCH   7   8
ATOM      8  C1  IDU d1623      65.628  39.950  35.674  0.00  0.00     0.294 C 
ATOM      9  O5  IDU d1623      64.752  40.252  34.541  0.00  0.00    -0.343 OA
ATOM     10  C5  IDU d1623      65.443  40.267  33.241  0.00  0.00     0.224 C 
ATOM     11  C4  IDU d1623      66.523  41.361  33.268  0.00  0.00     0.077 C 
ATOM     12  C3  IDU d1623      67.495  41.099  34.429  0.00  0.00     0.156 C 
ATOM     13  C2  IDU d1623      66.676  41.073  35.729  0.00  0.00     0.228 C 
BRANCH  10  14
ATOM     14  C6  IDU d1623      64.491  40.572  32.116  0.00  0.00     0.170 C 
ATOM     15  O62 IDU d1623      64.067  41.733  32.007  0.00  0.00    -0.648 OA
BRANCH  14  16
ATOM     16  O61 IDU d1623      64.178  39.637  31.352  0.00  0.00    -0.774 OA
ENDBRANCH  14  16
ENDBRANCH  10  14
BRANCH  12  18
ATOM     18  O3  IDU d1623      68.131  39.867  34.237  0.00  0.00    -0.393 OA
ATOM     19  H   IDU d1623      69.079  40.012  34.088  0.00  0.00     0.210 HD
ENDBRANCH  12  18
BRANCH  13  20
ATOM     20  O2  IDU d1623      65.986  42.291  35.882  0.00  0.00    -0.244 OA
BRANCH  20  21
ATOM     21  S   IDU d1623      66.168  43.151  37.374  0.00  0.00     0.252 S 
ATOM     22  O3S IDU d1623      66.321  44.538  37.136  0.00  0.00    -0.572 OA
ATOM     23  O1S IDU d1623      67.278  42.560  38.059  0.00  0.00    -0.572 OA
ATOM     24  O2S IDU d1623      64.976  43.016  38.197  0.00  0.00    -0.572 OA
ENDBRANCH  20  21
ENDBRANCH  13  20
ENDBRANCH   7   8
ENDBRANCH   4   7
BRANCH   3  25
ATOM     25  C6  SGN d5702      62.331  40.722  37.723  0.00  0.00     0.227 C 
BRANCH  25  26
ATOM     26  O6  SGN d5702      61.164  40.229  37.081  0.00  0.00    -0.254 OA
BRANCH  26  27
ATOM     27  S2  SGN d5702      60.802  40.782  35.481  0.00  0.00     0.251 S 
ATOM     28  O4S SGN d5702      60.056  39.808  34.751  0.00  0.00    -0.572 OA
ATOM     29  O5S SGN d5702      62.038  41.038  34.798  0.00  0.00    -0.572 OA
ATOM     30  O6S SGN d5702      60.001  41.958  35.661  0.00  0.00    -0.572 OA
ENDBRANCH  26  27
ENDBRANCH  25  26
ENDBRANCH   3  25
BRANCH   5  31
ATOM     31  O3  SGN d5702      65.356  36.899  36.932  0.00  0.00    -0.391 OA
ATOM     32  H   SGN d5702      66.114  36.519  37.404  0.00  0.00     0.210 HD
ENDBRANCH   5  31
BRANCH   2  33
ATOM     33  N   SGN d5702      63.737  35.417  38.672  0.00  0.00    -0.189 NA
ATOM     34  H   SGN d5702      63.286  35.297  39.579  0.00  0.00     0.143 HD
BRANCH  33  35
ATOM     35  S1  SGN d5702      63.318  34.047  37.639  0.00  0.00     0.183 S 
ATOM     36  O1S SGN d5702      63.906  34.261  36.332  0.00  0.00    -0.582 OA
ATOM     37  O2S SGN d5702      61.902  34.014  37.473  0.00  0.00    -0.582 OA
ATOM     38  O3S SGN d5702      63.833  32.880  38.329  0.00  0.00    -0.582 OA
ENDBRANCH  33  35
ENDBRANCH   2  33
BRANCH   6  39
ATOM     39  O1  SGN d5702      62.956  37.471  40.376  0.00  0.00    -0.369 OA
ATOM     40  H   SGN d5702      63.843  37.077  40.378  0.00  0.00     0.212 HD
ENDBRANCH   6  39
TORSDOF 14
ENDMDL
MODEL 11
REMARK VINA RESULT:      -4.1      3.249      6.086
REMARK  14 active torsions:
REMARK  status: ('A' for Active; 'I' for Inactive)
REMARK    1  A    between atoms: C5_1  and  C6_23 
REMARK    2  A    between atoms: S2_5  and  O6_7 
REMARK    3  A    between atoms: O1_6  and  C1_35 
REMARK    4  A    between atoms: O6_7  and  C6_21 
REMARK    5  A    between atoms: O2_9  and  C2_28 
REMARK    6  A    between atoms: O2_9  and  S_13 
REMARK    7  A    between atoms: C3_10  and  O3_20 
REMARK    8  A    between atoms: C1_11  and  O4_12 
REMARK    9  A    between atoms: O4_12  and  C4_19 
REMARK   10  A    between atoms: C2_15  and  N_29 
REMARK   11  A    between atoms: C5_17  and  C6_21 
REMARK   12  A    between atoms: C6_23  and  O61_33 
REMARK   13  A    between atoms: O3_24  and  C3_26 
REMARK   14  A    between atoms: S1_27  and  N_29 
ROOT
ATOM      1  O5  SGN d5702      63.626  37.569  38.142  0.00  0.00    -0.350 OA
ATOM      2  C2  SGN d5702      62.566  37.587  40.296  0.00  0.00     0.160 C 
ATOM      3  C5  SGN d5702      63.178  38.865  37.826  0.00  0.00     0.181 C 
ATOM      4  C4  SGN d5702      62.996  39.668  39.129  0.00  0.00     0.186 C 
ATOM      5  C3  SGN d5702      61.944  38.925  39.995  0.00  0.00     0.173 C 
ATOM      6  C1  SGN d5702      62.786  36.807  39.014  0.00  0.00     0.278 C 
ENDROOT
BRANCH   4   7
ATOM      7  O4  SGN d5702      62.550  40.993  38.731  0.00  0.00    -0.348 OA
BRANCH   7   8
ATOM      8  C1  IDU d1623      62.960  42.221  39.297  0.00  0.00     0.294 C 
ATOM      9  O5  IDU d1623      64.381  42.512  39.094  0.00  0.00    -0.343 OA
ATOM     10  C5  IDU d1623      64.846  43.723  39.789  0.00  0.00     0.224 C 
ATOM     11  C4  IDU d1623      64.066  44.934  39.251  0.00  0.00     0.077 C 
ATOM     12  C3  IDU d1623      62.559  44.705  39.447  0.00  0.00     0.156 C 
ATOM     13  C2  IDU d1623      62.182  43.410  38.712  0.00  0.00     0.228 C 
BRANCH  10  14
ATOM     14  C6  IDU d1623      66.312  43.964  39.551  0.00  0.00     0.170 C 
ATOM     15  O62 IDU d1623      66.650  45.027  39.009  0.00  0.00    -0.648 OA
BRANCH  14  16
ATOM     16  O61 IDU d1623      67.112  43.077  39.913  0.00  0.00    -0.774 OA
ENDBRANCH  14  16
ENDBRANCH  10  14
BRANCH  12  18
ATOM     18  O3  IDU d1623      62.278  44.582  40.814  0.00  0.00    -0.393 OA
ATOM     19  H   IDU d1623      61.887  45.408  41.139  0.00  0.00     0.210 HD
ENDBRANCH  12  18
BRANCH  13  20
ATOM     20  O2  IDU d1623      62.527  43.516  37.351  0.00  0.00    -0.244 OA
BRANCH  20  21
ATOM     21  S   IDU d1623      61.255  43.447  36.177  0.00  0.00     0.252 S 
ATOM     22  O3S IDU d1623      61.750  43.750  34.887  0.00  0.00    -0.572 OA
ATOM     23  O1S IDU d1623      60.232  44.344  36.625  0.00  0.00    -0.572 OA
ATOM     24  O2S IDU d1623      60.704  42.103  36.090  0.00  0.00    -0.572 OA
ENDBRANCH  20  21
ENDBRANCH  13  20
ENDBRANCH   7   8
ENDBRANCH   4   7
BRANCH   3  25
ATOM     25  C6  SGN d5702      64.202  39.478  36.923  0.00  0.00     0.227 C 
BRANCH  25  26
ATOM     26  O6  SGN d5702      63.420  40.110  35.920  0.00  0.00    -0.254 OA
BRANCH  26  27
ATOM     27  S2  SGN d5702      64.231  40.972  34.657  0.00  0.00     0.251 S 
ATOM     28  O4S SGN d5702      65.335  40.226  34.144  0.00  0.00    -0.572 OA
ATOM     29  O5S SGN d5702      64.710  42.215  35.190  0.00  0.00    -0.572 OA
ATOM     30  O6S SGN d5702      63.250  41.140  33.625  0.00  0.00    -0.572 OA
ENDBRANCH  26  27
ENDBRANCH  25  26
ENDBRANCH   3  25
BRANCH   5  31
ATOM     31  O3  SGN d5702      61.750  39.613  41.207  0.00  0.00    -0.391 OA
ATOM     32  H   SGN d5702      62.584  40.024  41.482  0.00  0.00     0.210 HD
ENDBRANCH   5  31
BRANCH   2  33
ATOM     33  N   SGN d5702      61.701  36.814  41.125  0.00  0.00    -0.189 NA
ATOM     34  H   SGN d5702      61.489  35.935  40.652  0.00  0.00     0.143 HD
BRANCH  33  35
ATOM     35  S1  SGN d5702      62.433  36.456  42.692  0.00  0.00     0.183 S 
ATOM     36  O1S SGN d5702      62.891  37.699  43.280  0.00  0.00    -0.582 OA
ATOM     37  O2S SGN d5702      63.578  35.630  42.486  0.00  0.00    -0.582 OA
ATOM     38  O3S SGN d5702      61.391  35.797  43.457  0.00  0.00    -0.582 OA
ENDBRANCH  33  35
ENDBRANCH   2  33
BRANCH   6  39
ATOM     39  O1  SGN d5702      61.580  36.473  38.369  0.00  0.00    -0.369 OA
ATOM     40  H   SGN d5702      61.720  36.458  37.409  0.00  0.00     0.212 HD
ENDBRANCH   6  39
TORSDOF 14
ENDMDL
MODEL 12
REMARK VINA RESULT:      -4.1      3.883      8.578
REMARK  14 active torsions:
REMARK  status: ('A' for Active; 'I' for Inactive)
REMARK    1  A    between atoms: C5_1  and  C6_23 
REMARK    2  A    between atoms: S2_5  and  O6_7 
REMARK    3  A    between atoms: O1_6  and  C1_35 
REMARK    4  A    between atoms: O6_7  and  C6_21 
REMARK    5  A    between atoms: O2_9  and  C2_28 
REMARK    6  A    between atoms: O2_9  and  S_13 
REMARK    7  A    between atoms: C3_10  and  O3_20 
REMARK    8  A    between atoms: C1_11  and  O4_12 
REMARK    9  A    between atoms: O4_12  and  C4_19 
REMARK   10  A    between atoms: C2_15  and  N_29 
REMARK   11  A    between atoms: C5_17  and  C6_21 
REMARK   12  A    between atoms: C6_23  and  O61_33 
REMARK   13  A    between atoms: O3_24  and  C3_26 
REMARK   14  A    between atoms: S1_27  and  N_29 
ROOT
ATOM      1  O5  SGN d5702      64.254  40.313  38.817  0.00  0.00    -0.350 OA
ATOM      2  C2  SGN d5702      62.186  40.461  37.607  0.00  0.00     0.160 C 
ATOM      3  C5  SGN d5702      63.943  39.047  39.346  0.00  0.00     0.181 C 
ATOM      4  C4  SGN d5702      63.003  38.310  38.370  0.00  0.00     0.186 C 
ATOM      5  C3  SGN d5702      61.718  39.168  38.220  0.00  0.00     0.173 C 
ATOM      6  C1  SGN d5702      63.144  41.173  38.544  0.00  0.00     0.278 C 
ENDROOT
BRANCH   4   7
ATOM      7  O4  SGN d5702      62.736  37.011  38.967  0.00  0.00    -0.348 OA
BRANCH   7   8
ATOM      8  C1  IDU d1623      62.762  35.764  38.304  0.00  0.00     0.294 C 
ATOM      9  O5  IDU d1623      64.095  35.381  37.833  0.00  0.00    -0.343 OA
ATOM     10  C5  IDU d1623      64.110  34.147  37.030  0.00  0.00     0.224 C 
ATOM     11  C4  IDU d1623      63.598  32.986  37.897  0.00  0.00     0.077 C 
ATOM     12  C3  IDU d1623      62.189  33.311  38.417  0.00  0.00     0.156 C 
ATOM     13  C2  IDU d1623      62.275  34.623  39.212  0.00  0.00     0.228 C 
BRANCH  10  14
ATOM     14  C6  IDU d1623      65.502  33.811  36.567  0.00  0.00     0.170 C 
ATOM     15  O62 IDU d1623      66.179  33.038  37.261  0.00  0.00    -0.648 OA
BRANCH  14  16
ATOM     16  O61 IDU d1623      65.902  34.333  35.506  0.00  0.00    -0.774 OA
ENDBRANCH  14  16
ENDBRANCH  10  14
BRANCH  12  18
ATOM     18  O3  IDU d1623      61.315  33.461  37.334  0.00  0.00    -0.393 OA
ATOM     19  H   IDU d1623      60.735  32.686  37.277  0.00  0.00     0.210 HD
ENDBRANCH  12  18
BRANCH  13  20
ATOM     20  O2  IDU d1623      63.205  34.487  40.259  0.00  0.00    -0.244 OA
BRANCH  20  21
ATOM     21  S   IDU d1623      62.642  34.688  41.885  0.00  0.00     0.252 S 
ATOM     22  O3S IDU d1623      61.839  35.848  41.995  0.00  0.00    -0.572 OA
ATOM     23  O1S IDU d1623      63.802  34.711  42.724  0.00  0.00    -0.572 OA
ATOM     24  O2S IDU d1623      61.793  33.574  42.280  0.00  0.00    -0.572 OA
ENDBRANCH  20  21
ENDBRANCH  13  20
ENDBRANCH   7   8
ENDBRANCH   4   7
BRANCH   3  25
ATOM     25  C6  SGN d5702      65.237  38.320  39.541  0.00  0.00     0.227 C 
BRANCH  25  26
ATOM     26  O6  SGN d5702      66.092  38.904  38.570  0.00  0.00    -0.254 OA
BRANCH  26  27
ATOM     27  S2  SGN d5702      66.791  37.883  37.359  0.00  0.00     0.251 S 
ATOM     28  O4S SGN d5702      67.979  38.459  36.817  0.00  0.00    -0.572 OA
ATOM     29  O5S SGN d5702      65.832  37.703  36.307  0.00  0.00    -0.572 OA
ATOM     30  O6S SGN d5702      67.121  36.664  38.039  0.00  0.00    -0.572 OA
ENDBRANCH  26  27
ENDBRANCH  25  26
ENDBRANCH   3  25
BRANCH   5  31
ATOM     31  O3  SGN d5702      60.829  38.543  37.326  0.00  0.00    -0.391 OA
ATOM     32  H   SGN d5702      60.698  39.111  36.550  0.00  0.00     0.210 HD
ENDBRANCH   5  31
BRANCH   2  33
ATOM     33  N   SGN d5702      61.079  41.332  37.383  0.00  0.00    -0.189 NA
ATOM     34  H   SGN d5702      61.226  42.194  37.910  0.00  0.00     0.143 HD
BRANCH  33  35
ATOM     35  S1  SGN d5702      60.890  41.734  35.674  0.00  0.00     0.183 S 
ATOM     36  O1S SGN d5702      62.121  42.339  35.205  0.00  0.00    -0.582 OA
ATOM     37  O2S SGN d5702      59.856  42.708  35.543  0.00  0.00    -0.582 OA
ATOM     38  O3S SGN d5702      60.569  40.479  35.022  0.00  0.00    -0.582 OA
ENDBRANCH  33  35
ENDBRANCH   2  33
BRANCH   6  39
ATOM     39  O1  SGN d5702      62.528  41.579  39.743  0.00  0.00    -0.369 OA
ATOM     40  H   SGN d5702      61.829  42.221  39.545  0.00  0.00     0.212 HD
ENDBRANCH   6  39
TORSDOF 14
ENDMDL
MODEL 13
REMARK VINA RESULT:      -4.1      3.608      6.422
REMARK  14 active torsions:
REMARK  status: ('A' for Active; 'I' for Inactive)
REMARK    1  A    between atoms: C5_1  and  C6_23 
REMARK    2  A    between atoms: S2_5  and  O6_7 
REMARK    3  A    between atoms: O1_6  and  C1_35 
REMARK    4  A    between atoms: O6_7  and  C6_21 
REMARK    5  A    between atoms: O2_9  and  C2_28 
REMARK    6  A    between atoms: O2_9  and  S_13 
REMARK    7  A    between atoms: C3_10  and  O3_20 
REMARK    8  A    between atoms: C1_11  and  O4_12 
REMARK    9  A    between atoms: O4_12  and  C4_19 
REMARK   10  A    between atoms: C2_15  and  N_29 
REMARK   11  A    between atoms: C5_17  and  C6_21 
REMARK   12  A    between atoms: C6_23  and  O61_33 
REMARK   13  A    between atoms: O3_24  and  C3_26 
REMARK   14  A    between atoms: S1_27  and  N_29 
ROOT
ATOM      1  O5  SGN d5702      63.531  38.176  38.024  0.00  0.00    -0.350 OA
ATOM      2  C2  SGN d5702      62.538  37.838  40.183  0.00  0.00     0.160 C 
ATOM      3  C5  SGN d5702      63.162  39.533  37.981  0.00  0.00     0.181 C 
ATOM      4  C4  SGN d5702      63.072  40.076  39.422  0.00  0.00     0.186 C 
ATOM      5  C3  SGN d5702      61.998  39.244  40.172  0.00  0.00     0.173 C 
ATOM      6  C1  SGN d5702      62.667  37.311  38.766  0.00  0.00     0.278 C 
ENDROOT
BRANCH   4   7
ATOM      7  O4  SGN d5702      62.705  41.479  39.305  0.00  0.00    -0.348 OA
BRANCH   7   8
ATOM      8  C1  IDU d1623      63.243  42.550  40.052  0.00  0.00     0.294 C 
ATOM      9  O5  IDU d1623      64.648  42.827  39.748  0.00  0.00    -0.343 OA
ATOM     10  C5  IDU d1623      65.253  43.855  40.610  0.00  0.00     0.224 C 
ATOM     11  C4  IDU d1623      64.491  45.176  40.416  0.00  0.00     0.077 C 
ATOM     12  C3  IDU d1623      63.003  44.965  40.735  0.00  0.00     0.156 C 
ATOM     13  C2  IDU d1623      62.476  43.860  39.807  0.00  0.00     0.228 C 
BRANCH  10  14
ATOM     14  C6  IDU d1623      66.697  44.087  40.257  0.00  0.00     0.170 C 
ATOM     15  O62 IDU d1623      67.107  45.257  40.212  0.00  0.00    -0.648 OA
BRANCH  14  16
ATOM     16  O61 IDU d1623      67.407  43.087  40.028  0.00  0.00    -0.774 OA
ENDBRANCH  14  16
ENDBRANCH  10  14
BRANCH  12  18
ATOM     18  O3  IDU d1623      62.862  44.577  42.073  0.00  0.00    -0.393 OA
ATOM     19  H   IDU d1623      63.740  44.465  42.471  0.00  0.00     0.210 HD
ENDBRANCH  12  18
BRANCH  13  20
ATOM     20  O2  IDU d1623      62.681  44.227  38.463  0.00  0.00    -0.244 OA
BRANCH  20  21
ATOM     21  S   IDU d1623      61.455  45.164  37.676  0.00  0.00     0.252 S 
ATOM     22  O3S IDU d1623      60.814  44.402  36.670  0.00  0.00    -0.572 OA
ATOM     23  O1S IDU d1623      62.093  46.347  37.182  0.00  0.00    -0.572 OA
ATOM     24  O2S IDU d1623      60.411  45.544  38.616  0.00  0.00    -0.572 OA
ENDBRANCH  20  21
ENDBRANCH  13  20
ENDBRANCH   7   8
ENDBRANCH   4   7
BRANCH   3  25
ATOM     25  C6  SGN d5702      64.198  40.248  37.171  0.00  0.00     0.227 C 
BRANCH  25  26
ATOM     26  O6  SGN d5702      63.792  40.007  35.832  0.00  0.00    -0.254 OA
BRANCH  26  27
ATOM     27  S2  SGN d5702      62.934  41.252  34.990  0.00  0.00     0.251 S 
ATOM     28  O4S SGN d5702      61.527  41.014  35.004  0.00  0.00    -0.572 OA
ATOM     29  O5S SGN d5702      63.394  41.280  33.630  0.00  0.00    -0.572 OA
ATOM     30  O6S SGN d5702      63.220  42.459  35.708  0.00  0.00    -0.572 OA
ENDBRANCH  26  27
ENDBRANCH  25  26
ENDBRANCH   3  25
BRANCH   5  31
ATOM     31  O3  SGN d5702      61.887  39.693  41.500  0.00  0.00    -0.391 OA
ATOM     32  H   SGN d5702      62.771  39.777  41.888  0.00  0.00     0.210 HD
ENDBRANCH   5  31
BRANCH   2  33
ATOM     33  N   SGN d5702      61.647  36.972  40.883  0.00  0.00    -0.189 NA
ATOM     34  H   SGN d5702      61.367  36.214  40.260  0.00  0.00     0.143 HD
BRANCH  33  35
ATOM     35  S1  SGN d5702      62.396  36.279  42.324  0.00  0.00     0.183 S 
ATOM     36  O1S SGN d5702      63.088  37.335  43.035  0.00  0.00    -0.582 OA
ATOM     37  O2S SGN d5702      63.373  35.321  41.919  0.00  0.00    -0.582 OA
ATOM     38  O3S SGN d5702      61.303  35.688  43.074  0.00  0.00    -0.582 OA
ENDBRANCH  33  35
ENDBRANCH   2  33
BRANCH   6  39
ATOM     39  O1  SGN d5702      61.423  37.182  38.120  0.00  0.00    -0.369 OA
ATOM     40  H   SGN d5702      61.317  37.901  37.477  0.00  0.00     0.212 HD
ENDBRANCH   6  39
TORSDOF 14
ENDMDL
MODEL 14
REMARK VINA RESULT:      -4.0      2.787      3.362
REMARK  14 active torsions:
REMARK  status: ('A' for Active; 'I' for Inactive)
REMARK    1  A    between atoms: C5_1  and  C6_23 
REMARK    2  A    between atoms: S2_5  and  O6_7 
REMARK    3  A    between atoms: O1_6  and  C1_35 
REMARK    4  A    between atoms: O6_7  and  C6_21 
REMARK    5  A    between atoms: O2_9  and  C2_28 
REMARK    6  A    between atoms: O2_9  and  S_13 
REMARK    7  A    between atoms: C3_10  and  O3_20 
REMARK    8  A    between atoms: C1_11  and  O4_12 
REMARK    9  A    between atoms: O4_12  and  C4_19 
REMARK   10  A    between atoms: C2_15  and  N_29 
REMARK   11  A    between atoms: C5_17  and  C6_21 
REMARK   12  A    between atoms: C6_23  and  O61_33 
REMARK   13  A    between atoms: O3_24  and  C3_26 
REMARK   14  A    between atoms: S1_27  and  N_29 
ROOT
ATOM      1  O5  SGN d5702      63.340  42.867  37.428  0.00  0.00    -0.350 OA
ATOM      2  C2  SGN d5702      65.588  42.204  37.951  0.00  0.00     0.160 C 
ATOM      3  C5  SGN d5702      63.712  43.431  36.193  0.00  0.00     0.181 C 
ATOM      4  C4  SGN d5702      64.962  42.701  35.662  0.00  0.00     0.186 C 
ATOM      5  C3  SGN d5702      66.094  42.887  36.708  0.00  0.00     0.173 C 
ATOM      6  C1  SGN d5702      64.333  42.892  38.457  0.00  0.00     0.278 C 
ENDROOT
BRANCH   4   7
ATOM      7  O4  SGN d5702      65.280  43.319  34.385  0.00  0.00    -0.348 OA
BRANCH   7   8
ATOM      8  C1  IDU d1623      65.833  42.673  33.256  0.00  0.00     0.294 C 
ATOM      9  O5  IDU d1623      64.942  41.674  32.661  0.00  0.00    -0.343 OA
ATOM     10  C5  IDU d1623      65.556  40.906  31.566  0.00  0.00     0.224 C 
ATOM     11  C4  IDU d1623      65.948  41.876  30.439  0.00  0.00     0.077 C 
ATOM     12  C3  IDU d1623      66.901  42.949  30.989  0.00  0.00     0.156 C 
ATOM     13  C2  IDU d1623      66.181  43.670  32.140  0.00  0.00     0.228 C 
BRANCH  10  14
ATOM     14  C6  IDU d1623      64.599  39.892  31.002  0.00  0.00     0.170 C 
ATOM     15  O62 IDU d1623      63.624  40.303  30.354  0.00  0.00    -0.648 OA
BRANCH  14  16
ATOM     16  O61 IDU d1623      64.837  38.686  31.219  0.00  0.00    -0.774 OA
ENDBRANCH  14  16
ENDBRANCH  10  14
BRANCH  12  18
ATOM     18  O3  IDU d1623      68.070  42.338  31.461  0.00  0.00    -0.393 OA
ATOM     19  H   IDU d1623      68.147  42.484  32.417  0.00  0.00     0.210 HD
ENDBRANCH  12  18
BRANCH  13  20
ATOM     20  O2  IDU d1623      64.974  44.225  31.673  0.00  0.00    -0.244 OA
BRANCH  20  21
ATOM     21  S   IDU d1623      64.626  45.874  32.071  0.00  0.00     0.252 S 
ATOM     22  O3S IDU d1623      63.602  45.948  33.045  0.00  0.00    -0.572 OA
ATOM     23  O1S IDU d1623      64.298  46.534  30.843  0.00  0.00    -0.572 OA
ATOM     24  O2S IDU d1623      65.788  46.520  32.661  0.00  0.00    -0.572 OA
ENDBRANCH  20  21
ENDBRANCH  13  20
ENDBRANCH   7   8
ENDBRANCH   4   7
BRANCH   3  25
ATOM     25  C6  SGN d5702      62.540  43.289  35.272  0.00  0.00     0.227 C 
BRANCH  25  26
ATOM     26  O6  SGN d5702      62.357  41.883  35.188  0.00  0.00    -0.254 OA
BRANCH  26  27
ATOM     27  S2  SGN d5702      60.830  41.216  35.655  0.00  0.00     0.251 S 
ATOM     28  O4S SGN d5702      60.890  40.644  36.961  0.00  0.00    -0.572 OA
ATOM     29  O5S SGN d5702      60.470  40.198  34.710  0.00  0.00    -0.572 OA
ATOM     30  O6S SGN d5702      59.921  42.326  35.664  0.00  0.00    -0.572 OA
ENDBRANCH  26  27
ENDBRANCH  25  26
ENDBRANCH   3  25
BRANCH   5  31
ATOM     31  O3  SGN d5702      67.258  42.226  36.274  0.00  0.00    -0.391 OA
ATOM     32  H   SGN d5702      67.937  42.282  36.964  0.00  0.00     0.210 HD
ENDBRANCH   5  31
BRANCH   2  33
ATOM     33  N   SGN d5702      66.564  42.276  38.987  0.00  0.00    -0.189 NA
ATOM     34  H   SGN d5702      66.156  42.754  39.792  0.00  0.00     0.143 HD
BRANCH  33  35
ATOM     35  S1  SGN d5702      67.112  40.675  39.492  0.00  0.00     0.183 S 
ATOM     36  O1S SGN d5702      65.947  39.850  39.743  0.00  0.00    -0.582 OA
ATOM     37  O2S SGN d5702      67.823  40.799  40.722  0.00  0.00    -0.582 OA
ATOM     38  O3S SGN d5702      67.943  40.197  38.404  0.00  0.00    -0.582 OA
ENDBRANCH  33  35
ENDBRANCH   2  33
BRANCH   6  39
ATOM     39  O1  SGN d5702      64.573  44.214  38.880  0.00  0.00    -0.369 OA
ATOM     40  H   SGN d5702      64.289  44.314  39.802  0.00  0.00     0.212 HD
ENDBRANCH   6  39
TORSDOF 14
ENDMDL
MODEL 15
REMARK VINA RESULT:      -4.0      3.030      4.600
REMARK  14 active torsions:
REMARK  status: ('A' for Active; 'I' for Inactive)
REMARK    1  A    between atoms: C5_1  and  C6_23 
REMARK    2  A    between atoms: S2_5  and  O6_7 
REMARK    3  A    between atoms: O1_6  and  C1_35 
REMARK    4  A    between atoms: O6_7  and  C6_21 
REMARK    5  A    between atoms: O2_9  and  C2_28 
REMARK    6  A    between atoms: O2_9  and  S_13 
REMARK    7  A    between atoms: C3_10  and  O3_20 
REMARK    8  A    between atoms: C1_11  and  O4_12 
REMARK    9  A    between atoms: O4_12  and  C4_19 
REMARK   10  A    between atoms: C2_15  and  N_29 
REMARK   11  A    between atoms: C5_17  and  C6_21 
REMARK   12  A    between atoms: C6_23  and  O61_33 
REMARK   13  A    between atoms: O3_24  and  C3_26 
REMARK   14  A    between atoms: S1_27  and  N_29 
ROOT
ATOM      1  O5  SGN d5702      62.116  38.040  39.314  0.00  0.00    -0.350 OA
ATOM      2  C2  SGN d5702      63.406  38.584  41.264  0.00  0.00     0.160 C 
ATOM      3  C5  SGN d5702      62.132  39.364  38.840  0.00  0.00     0.181 C 
ATOM      4  C4  SGN d5702      63.409  40.065  39.346  0.00  0.00     0.186 C 
ATOM      5  C3  SGN d5702      63.373  40.044  40.897  0.00  0.00     0.173 C 
ATOM      6  C1  SGN d5702      62.172  37.878  40.735  0.00  0.00     0.278 C 
ENDROOT
BRANCH   4   7
ATOM      7  O4  SGN d5702      63.371  41.416  38.809  0.00  0.00    -0.348 OA
BRANCH   7   8
ATOM      8  C1  IDU d1623      64.401  42.061  38.090  0.00  0.00     0.294 C 
ATOM      9  O5  IDU d1623      64.594  41.528  36.740  0.00  0.00    -0.343 OA
ATOM     10  C5  IDU d1623      65.747  42.105  36.031  0.00  0.00     0.224 C 
ATOM     11  C4  IDU d1623      65.529  43.619  35.880  0.00  0.00     0.077 C 
ATOM     12  C3  IDU d1623      65.335  44.254  37.266  0.00  0.00     0.156 C 
ATOM     13  C2  IDU d1623      64.132  43.566  37.931  0.00  0.00     0.228 C 
BRANCH  10  14
ATOM     14  C6  IDU d1623      65.900  41.512  34.656  0.00  0.00     0.170 C 
ATOM     15  O62 IDU d1623      65.383  40.406  34.435  0.00  0.00    -0.648 OA
BRANCH  14  16
ATOM     16  O61 IDU d1623      66.542  42.166  33.810  0.00  0.00    -0.774 OA
ENDBRANCH  14  16
ENDBRANCH  10  14
BRANCH  12  18
ATOM     18  O3  IDU d1623      66.488  44.057  38.036  0.00  0.00    -0.393 OA
ATOM     19  H   IDU d1623      67.214  44.586  37.670  0.00  0.00     0.210 HD
ENDBRANCH  12  18
BRANCH  13  20
ATOM     20  O2  IDU d1623      62.991  43.711  37.120  0.00  0.00    -0.244 OA
BRANCH  20  21
ATOM     21  S   IDU d1623      61.881  44.988  37.491  0.00  0.00     0.252 S 
ATOM     22  O3S IDU d1623      62.407  46.239  37.092  0.00  0.00    -0.572 OA
ATOM     23  O1S IDU d1623      61.607  44.901  38.894  0.00  0.00    -0.572 OA
ATOM     24  O2S IDU d1623      60.637  44.822  36.753  0.00  0.00    -0.572 OA
ENDBRANCH  20  21
ENDBRANCH  13  20
ENDBRANCH   7   8
ENDBRANCH   4   7
BRANCH   3  25
ATOM     25  C6  SGN d5702      62.078  39.299  37.345  0.00  0.00     0.227 C 
BRANCH  25  26
ATOM     26  O6  SGN d5702      60.914  40.046  37.026  0.00  0.00    -0.254 OA
BRANCH  26  27
ATOM     27  S2  SGN d5702      60.744  40.671  35.420  0.00  0.00     0.251 S 
ATOM     28  O4S SGN d5702      62.016  40.883  34.809  0.00  0.00    -0.572 OA
ATOM     29  O5S SGN d5702      60.040  41.919  35.491  0.00  0.00    -0.572 OA
ATOM     30  O6S SGN d5702      60.031  39.660  34.696  0.00  0.00    -0.572 OA
ENDBRANCH  26  27
ENDBRANCH  25  26
ENDBRANCH   3  25
BRANCH   5  31
ATOM     31  O3  SGN d5702      64.528  40.662  41.411  0.00  0.00    -0.391 OA
ATOM     32  H   SGN d5702      64.278  41.273  42.122  0.00  0.00     0.210 HD
ENDBRANCH   5  31
BRANCH   2  33
ATOM     33  N   SGN d5702      63.413  38.430  42.682  0.00  0.00    -0.189 NA
ATOM     34  H   SGN d5702      62.805  37.649  42.931  0.00  0.00     0.143 HD
BRANCH  33  35
ATOM     35  S1  SGN d5702      65.035  38.113  43.305  0.00  0.00     0.183 S 
ATOM     36  O1S SGN d5702      65.481  39.281  44.037  0.00  0.00    -0.582 OA
ATOM     37  O2S SGN d5702      65.922  37.931  42.203  0.00  0.00    -0.582 OA
ATOM     38  O3S SGN d5702      64.901  36.924  44.125  0.00  0.00    -0.582 OA
ENDBRANCH  33  35
ENDBRANCH   2  33
BRANCH   6  39
ATOM     39  O1  SGN d5702      60.984  38.342  41.331  0.00  0.00    -0.369 OA
ATOM     40  H   SGN d5702      60.228  37.853  40.969  0.00  0.00     0.212 HD
ENDBRANCH   6  39
TORSDOF 14
ENDMDL
MODEL 16
REMARK VINA RESULT:      -4.0      3.092      4.971
REMARK  14 active torsions:
REMARK  status: ('A' for Active; 'I' for Inactive)
REMARK    1  A    between atoms: C5_1  and  C6_23 
REMARK    2  A    between atoms: S2_5  and  O6_7 
REMARK    3  A    between atoms: O1_6  and  C1_35 
REMARK    4  A    between atoms: O6_7  and  C6_21 
REMARK    5  A    between atoms: O2_9  and  C2_28 
REMARK    6  A    between atoms: O2_9  and  S_13 
REMARK    7  A    between atoms: C3_10  and  O3_20 
REMARK    8  A    between atoms: C1_11  and  O4_12 
REMARK    9  A    between atoms: O4_12  and  C4_19 
REMARK   10  A    between atoms: C2_15  and  N_29 
REMARK   11  A    between atoms: C5_17  and  C6_21 
REMARK   12  A    between atoms: C6_23  and  O61_33 
REMARK   13  A    between atoms: O3_24  and  C3_26 
REMARK   14  A    between atoms: S1_27  and  N_29 
ROOT
ATOM      1  O5  SGN d5702      63.315  38.708  37.473  0.00  0.00    -0.350 OA
ATOM      2  C2  SGN d5702      65.565  38.650  36.637  0.00  0.00     0.160 C 
ATOM      3  C5  SGN d5702      63.433  40.038  37.918  0.00  0.00     0.181 C 
ATOM      4  C4  SGN d5702      64.467  40.773  37.042  0.00  0.00     0.186 C 
ATOM      5  C3  SGN d5702      65.821  40.028  37.187  0.00  0.00     0.173 C 
ATOM      6  C1  SGN d5702      64.518  37.935  37.471  0.00  0.00     0.278 C 
ENDROOT
BRANCH   4   7
ATOM      7  O4  SGN d5702      64.528  42.137  37.543  0.00  0.00    -0.348 OA
BRANCH   7   8
ATOM      8  C1  IDU d1623      64.905  43.283  36.808  0.00  0.00     0.294 C 
ATOM      9  O5  IDU d1623      64.090  43.504  35.611  0.00  0.00    -0.343 OA
ATOM     10  C5  IDU d1623      64.556  44.619  34.772  0.00  0.00     0.224 C 
ATOM     11  C4  IDU d1623      64.495  45.918  35.593  0.00  0.00     0.077 C 
ATOM     12  C3  IDU d1623      65.345  45.765  36.864  0.00  0.00     0.156 C 
ATOM     13  C2  IDU d1623      64.800  44.564  37.651  0.00  0.00     0.228 C 
BRANCH  10  14
ATOM     14  C6  IDU d1623      63.688  44.791  33.555  0.00  0.00     0.170 C 
ATOM     15  O62 IDU d1623      63.642  45.910  33.021  0.00  0.00    -0.648 OA
BRANCH  14  16
ATOM     16  O61 IDU d1623      63.057  43.794  33.147  0.00  0.00    -0.774 OA
ENDBRANCH  14  16
ENDBRANCH  10  14
BRANCH  12  18
ATOM     18  O3  IDU d1623      66.681  45.541  36.508  0.00  0.00    -0.393 OA
ATOM     19  H   IDU d1623      67.251  46.164  36.985  0.00  0.00     0.210 HD
ENDBRANCH  12  18
BRANCH  13  20
ATOM     20  O2  IDU d1623      63.438  44.766  37.948  0.00  0.00    -0.244 OA
BRANCH  20  21
ATOM     21  S   IDU d1623      62.986  44.979  39.607  0.00  0.00     0.252 S 
ATOM     22  O3S IDU d1623      63.146  46.329  40.000  0.00  0.00    -0.572 OA
ATOM     23  O1S IDU d1623      63.777  44.061  40.371  0.00  0.00    -0.572 OA
ATOM     24  O2S IDU d1623      61.578  44.669  39.803  0.00  0.00    -0.572 OA
ENDBRANCH  20  21
ENDBRANCH  13  20
ENDBRANCH   7   8
ENDBRANCH   4   7
BRANCH   3  25
ATOM     25  C6  SGN d5702      62.073  40.657  37.828  0.00  0.00     0.227 C 
BRANCH  25  26
ATOM     26  O6  SGN d5702      61.413  39.858  36.857  0.00  0.00    -0.254 OA
BRANCH  26  27
ATOM     27  S2  SGN d5702      60.879  40.607  35.391  0.00  0.00     0.251 S 
ATOM     28  O4S SGN d5702      60.218  41.845  35.651  0.00  0.00    -0.572 OA
ATOM     29  O5S SGN d5702      59.969  39.716  34.730  0.00  0.00    -0.572 OA
ATOM     30  O6S SGN d5702      62.074  40.855  34.638  0.00  0.00    -0.572 OA
ENDBRANCH  26  27
ENDBRANCH  25  26
ENDBRANCH   3  25
BRANCH   5  31
ATOM     31  O3  SGN d5702      66.799  40.655  36.393  0.00  0.00    -0.391 OA
ATOM     32  H   SGN d5702      67.411  39.986  36.047  0.00  0.00     0.210 HD
ENDBRANCH   5  31
BRANCH   2  33
ATOM     33  N   SGN d5702      66.757  37.869  36.684  0.00  0.00    -0.189 NA
ATOM     34  H   SGN d5702      66.590  37.047  37.265  0.00  0.00     0.143 HD
BRANCH  33  35
ATOM     35  S1  SGN d5702      67.263  37.339  35.077  0.00  0.00     0.183 S 
ATOM     36  O1S SGN d5702      66.189  36.560  34.492  0.00  0.00    -0.582 OA
ATOM     37  O2S SGN d5702      68.393  36.479  35.211  0.00  0.00    -0.582 OA
ATOM     38  O3S SGN d5702      67.563  38.558  34.351  0.00  0.00    -0.582 OA
ENDBRANCH  33  35
ENDBRANCH   2  33
BRANCH   6  39
ATOM     39  O1  SGN d5702      64.950  37.690  38.789  0.00  0.00    -0.369 OA
ATOM     40  H   SGN d5702      64.694  38.434  39.356  0.00  0.00     0.212 HD
ENDBRANCH   6  39
TORSDOF 14
ENDMDL
MODEL 17
REMARK VINA RESULT:      -4.0      2.362      7.651
REMARK  14 active torsions:
REMARK  status: ('A' for Active; 'I' for Inactive)
REMARK    1  A    between atoms: C5_1  and  C6_23 
REMARK    2  A    between atoms: S2_5  and  O6_7 
REMARK    3  A    between atoms: O1_6  and  C1_35 
REMARK    4  A    between atoms: O6_7  and  C6_21 
REMARK    5  A    between atoms: O2_9  and  C2_28 
REMARK    6  A    between atoms: O2_9  and  S_13 
REMARK    7  A    between atoms: C3_10  and  O3_20 
REMARK    8  A    between atoms: C1_11  and  O4_12 
REMARK    9  A    between atoms: O4_12  and  C4_19 
REMARK   10  A    between atoms: C2_15  and  N_29 
REMARK   11  A    between atoms: C5_17  and  C6_21 
REMARK   12  A    between atoms: C6_23  and  O61_33 
REMARK   13  A    between atoms: O3_24  and  C3_26 
REMARK   14  A    between atoms: S1_27  and  N_29 
ROOT
ATOM      1  O5  SGN d5702      62.801  41.391  34.251  0.00  0.00    -0.350 OA
ATOM      2  C2  SGN d5702      65.196  41.514  34.359  0.00  0.00     0.160 C 
ATOM      3  C5  SGN d5702      62.732  40.380  35.226  0.00  0.00     0.181 C 
ATOM      4  C4  SGN d5702      63.942  40.509  36.174  0.00  0.00     0.186 C 
ATOM      5  C3  SGN d5702      65.227  40.353  35.318  0.00  0.00     0.173 C 
ATOM      6  C1  SGN d5702      63.986  41.415  33.449  0.00  0.00     0.278 C 
ENDROOT
BRANCH   4   7
ATOM      7  O4  SGN d5702      63.800  39.450  37.160  0.00  0.00    -0.348 OA
BRANCH   7   8
ATOM      8  C1  IDU d1623      64.078  39.550  38.541  0.00  0.00     0.294 C 
ATOM      9  O5  IDU d1623      63.121  40.385  39.271  0.00  0.00    -0.343 OA
ATOM     10  C5  IDU d1623      63.474  40.599  40.683  0.00  0.00     0.224 C 
ATOM     11  C4  IDU d1623      63.507  39.238  41.398  0.00  0.00     0.077 C 
ATOM     12  C3  IDU d1623      64.507  38.309  40.694  0.00  0.00     0.156 C 
ATOM     13  C2  IDU d1623      64.070  38.174  39.227  0.00  0.00     0.228 C 
BRANCH  10  14
ATOM     14  C6  IDU d1623      62.462  41.471  41.376  0.00  0.00     0.170 C 
ATOM     15  O62 IDU d1623      61.804  40.979  42.305  0.00  0.00    -0.648 OA
BRANCH  14  16
ATOM     16  O61 IDU d1623      62.339  42.647  40.976  0.00  0.00    -0.774 OA
ENDBRANCH  14  16
ENDBRANCH  10  14
BRANCH  12  18
ATOM     18  O3  IDU d1623      65.791  38.865  40.764  0.00  0.00    -0.393 OA
ATOM     19  H   IDU d1623      66.450  38.154  40.795  0.00  0.00     0.210 HD
ENDBRANCH  12  18
BRANCH  13  20
ATOM     20  O2  IDU d1623      62.754  37.677  39.166  0.00  0.00    -0.244 OA
BRANCH  20  21
ATOM     21  S   IDU d1623      62.523  35.962  39.262  0.00  0.00     0.252 S 
ATOM     22  O3S IDU d1623      62.111  35.586  40.563  0.00  0.00    -0.572 OA
ATOM     23  O1S IDU d1623      63.754  35.357  38.852  0.00  0.00    -0.572 OA
ATOM     24  O2S IDU d1623      61.460  35.533  38.366  0.00  0.00    -0.572 OA
ENDBRANCH  20  21
ENDBRANCH  13  20
ENDBRANCH   7   8
ENDBRANCH   4   7
BRANCH   3  25
ATOM     25  C6  SGN d5702      61.430  40.547  35.945  0.00  0.00     0.227 C 
BRANCH  25  26
ATOM     26  O6  SGN d5702      60.875  41.712  35.353  0.00  0.00    -0.254 OA
BRANCH  26  27
ATOM     27  S2  SGN d5702      60.977  43.210  36.214  0.00  0.00     0.251 S 
ATOM     28  O4S SGN d5702      61.670  43.051  37.452  0.00  0.00    -0.572 OA
ATOM     29  O5S SGN d5702      59.644  43.674  36.477  0.00  0.00    -0.572 OA
ATOM     30  O6S SGN d5702      61.723  44.087  35.360  0.00  0.00    -0.572 OA
ENDBRANCH  26  27
ENDBRANCH  25  26
ENDBRANCH   3  25
BRANCH   5  31
ATOM     31  O3  SGN d5702      66.365  40.477  36.137  0.00  0.00    -0.391 OA
ATOM     32  H   SGN d5702      66.433  39.701  36.715  0.00  0.00     0.210 HD
ENDBRANCH   5  31
BRANCH   2  33
ATOM     33  N   SGN d5702      66.357  41.502  33.531  0.00  0.00    -0.189 NA
ATOM     34  H   SGN d5702      66.064  41.470  32.554  0.00  0.00     0.143 HD
BRANCH  33  35
ATOM     35  S1  SGN d5702      67.360  42.935  33.779  0.00  0.00     0.183 S 
ATOM     36  O1S SGN d5702      68.504  42.853  32.892  0.00  0.00    -0.582 OA
ATOM     37  O2S SGN d5702      67.853  42.924  35.117  0.00  0.00    -0.582 OA
ATOM     38  O3S SGN d5702      66.488  44.061  33.507  0.00  0.00    -0.582 OA
ENDBRANCH  33  35
ENDBRANCH   2  33
BRANCH   6  39
ATOM     39  O1  SGN d5702      64.033  40.289  32.605  0.00  0.00    -0.369 OA
ATOM     40  H   SGN d5702      64.834  39.776  32.795  0.00  0.00     0.212 HD
ENDBRANCH   6  39
TORSDOF 14
ENDMDL
MODEL 18
REMARK VINA RESULT:      -4.0      3.489      5.262
REMARK  14 active torsions:
REMARK  status: ('A' for Active; 'I' for Inactive)
REMARK    1  A    between atoms: C5_1  and  C6_23 
REMARK    2  A    between atoms: S2_5  and  O6_7 
REMARK    3  A    between atoms: O1_6  and  C1_35 
REMARK    4  A    between atoms: O6_7  and  C6_21 
REMARK    5  A    between atoms: O2_9  and  C2_28 
REMARK    6  A    between atoms: O2_9  and  S_13 
REMARK    7  A    between atoms: C3_10  and  O3_20 
REMARK    8  A    between atoms: C1_11  and  O4_12 
REMARK    9  A    between atoms: O4_12  and  C4_19 
REMARK   10  A    between atoms: C2_15  and  N_29 
REMARK   11  A    between atoms: C5_17  and  C6_21 
REMARK   12  A    between atoms: C6_23  and  O61_33 
REMARK   13  A    between atoms: O3_24  and  C3_26 
REMARK   14  A    between atoms: S1_27  and  N_29 
ROOT
ATOM      1  O5  SGN d5702      62.595  39.943  36.542  0.00  0.00    -0.350 OA
ATOM      2  C2  SGN d5702      62.422  39.626  38.915  0.00  0.00     0.160 C 
ATOM      3  C5  SGN d5702      62.913  41.308  36.670  0.00  0.00     0.181 C 
ATOM      4  C4  SGN d5702      63.617  41.537  38.022  0.00  0.00     0.186 C 
ATOM      5  C3  SGN d5702      62.636  41.099  39.143  0.00  0.00     0.173 C 
ATOM      6  C1  SGN d5702      61.765  39.390  37.568  0.00  0.00     0.278 C 
ENDROOT
BRANCH   4   7
ATOM      7  O4  SGN d5702      63.930  42.955  38.082  0.00  0.00    -0.348 OA
BRANCH   7   8
ATOM      8  C1  IDU d1623      65.175  43.524  38.433  0.00  0.00     0.294 C 
ATOM      9  O5  IDU d1623      66.250  43.203  37.492  0.00  0.00    -0.343 OA
ATOM     10  C5  IDU d1623      67.575  43.683  37.916  0.00  0.00     0.224 C 
ATOM     11  C4  IDU d1623      67.534  45.215  38.031  0.00  0.00     0.077 C 
ATOM     12  C3  IDU d1623      66.433  45.629  39.020  0.00  0.00     0.156 C 
ATOM     13  C2  IDU d1623      65.102  45.058  38.506  0.00  0.00     0.228 C 
BRANCH  10  14
ATOM     14  C6  IDU d1623      68.638  43.314  36.917  0.00  0.00     0.170 C 
ATOM     15  O62 IDU d1623      69.639  42.706  37.325  0.00  0.00    -0.648 OA
BRANCH  14  16
ATOM     16  O61 IDU d1623      68.455  43.643  35.727  0.00  0.00    -0.774 OA
ENDBRANCH  14  16
ENDBRANCH  10  14
BRANCH  12  18
ATOM     18  O3  IDU d1623      66.722  45.107  40.287  0.00  0.00    -0.393 OA
ATOM     19  H   IDU d1623      67.626  44.753  40.292  0.00  0.00     0.210 HD
ENDBRANCH  12  18
BRANCH  13  20
ATOM     20  O2  IDU d1623      64.850  45.534  37.206  0.00  0.00    -0.244 OA
BRANCH  20  21
ATOM     21  S   IDU d1623      63.339  46.327  36.904  0.00  0.00     0.252 S 
ATOM     22  O3S IDU d1623      63.417  47.125  35.738  0.00  0.00    -0.572 OA
ATOM     23  O1S IDU d1623      63.018  47.067  38.087  0.00  0.00    -0.572 OA
ATOM     24  O2S IDU d1623      62.286  45.354  36.653  0.00  0.00    -0.572 OA
ENDBRANCH  20  21
ENDBRANCH  13  20
ENDBRANCH   7   8
ENDBRANCH   4   7
BRANCH   3  25
ATOM     25  C6  SGN d5702      63.786  41.668  35.509  0.00  0.00     0.227 C 
BRANCH  25  26
ATOM     26  O6  SGN d5702      62.968  42.536  34.739  0.00  0.00    -0.254 OA
BRANCH  26  27
ATOM     27  S2  SGN d5702      63.728  43.621  33.625  0.00  0.00     0.251 S 
ATOM     28  O4S SGN d5702      64.900  44.208  34.190  0.00  0.00    -0.572 OA
ATOM     29  O5S SGN d5702      62.794  44.659  33.293  0.00  0.00    -0.572 OA
ATOM     30  O6S SGN d5702      64.096  42.811  32.501  0.00  0.00    -0.572 OA
ENDBRANCH  26  27
ENDBRANCH  25  26
ENDBRANCH   3  25
BRANCH   5  31
ATOM     31  O3  SGN d5702      63.239  41.277  40.402  0.00  0.00    -0.391 OA
ATOM     32  H   SGN d5702      63.846  40.541  40.576  0.00  0.00     0.210 HD
ENDBRANCH   5  31
BRANCH   2  33
ATOM     33  N   SGN d5702      61.555  39.092  39.914  0.00  0.00    -0.189 NA
ATOM     34  H   SGN d5702      60.736  38.689  39.458  0.00  0.00     0.143 HD
BRANCH  33  35
ATOM     35  S1  SGN d5702      62.348  37.840  40.876  0.00  0.00     0.183 S 
ATOM     36  O1S SGN d5702      63.587  38.380  41.400  0.00  0.00    -0.582 OA
ATOM     37  O2S SGN d5702      62.682  36.748  40.022  0.00  0.00    -0.582 OA
ATOM     38  O3S SGN d5702      61.385  37.483  41.901  0.00  0.00    -0.582 OA
ENDBRANCH  33  35
ENDBRANCH   2  33
BRANCH   6  39
ATOM     39  O1  SGN d5702      60.466  39.928  37.496  0.00  0.00    -0.369 OA
ATOM     40  H   SGN d5702      60.160  39.911  36.576  0.00  0.00     0.212 HD
ENDBRANCH   6  39
TORSDOF 14
ENDMDL
MODEL 19
REMARK VINA RESULT:      -4.0      3.671      8.306
REMARK  14 active torsions:
REMARK  status: ('A' for Active; 'I' for Inactive)
REMARK    1  A    between atoms: C5_1  and  C6_23 
REMARK    2  A    between atoms: S2_5  and  O6_7 
REMARK    3  A    between atoms: O1_6  and  C1_35 
REMARK    4  A    between atoms: O6_7  and  C6_21 
REMARK    5  A    between atoms: O2_9  and  C2_28 
REMARK    6  A    between atoms: O2_9  and  S_13 
REMARK    7  A    between atoms: C3_10  and  O3_20 
REMARK    8  A    between atoms: C1_11  and  O4_12 
REMARK    9  A    between atoms: O4_12  and  C4_19 
REMARK   10  A    between atoms: C2_15  and  N_29 
REMARK   11  A    between atoms: C5_17  and  C6_21 
REMARK   12  A    between atoms: C6_23  and  O61_33 
REMARK   13  A    between atoms: O3_24  and  C3_26 
REMARK   14  A    between atoms: S1_27  and  N_29 
ROOT
ATOM      1  O5  SGN d5702      65.005  41.532  38.188  0.00  0.00    -0.350 OA
ATOM      2  C2  SGN d5702      62.760  41.840  37.397  0.00  0.00     0.160 C 
ATOM      3  C5  SGN d5702      64.665  40.395  38.943  0.00  0.00     0.181 C 
ATOM      4  C4  SGN d5702      63.458  39.696  38.286  0.00  0.00     0.186 C 
ATOM      5  C3  SGN d5702      62.282  40.708  38.268  0.00  0.00     0.173 C 
ATOM      6  C1  SGN d5702      63.973  42.508  38.018  0.00  0.00     0.278 C 
ENDROOT
BRANCH   4   7
ATOM      7  O4  SGN d5702      63.171  38.527  39.103  0.00  0.00    -0.348 OA
BRANCH   7   8
ATOM      8  C1  IDU d1623      62.905  37.222  38.633  0.00  0.00     0.294 C 
ATOM      9  O5  IDU d1623      64.079  36.555  38.065  0.00  0.00    -0.343 OA
ATOM     10  C5  IDU d1623      63.784  35.247  37.458  0.00  0.00     0.224 C 
ATOM     11  C4  IDU d1623      63.226  34.311  38.542  0.00  0.00     0.077 C 
ATOM     12  C3  IDU d1623      61.976  34.941  39.175  0.00  0.00     0.156 C 
ATOM     13  C2  IDU d1623      62.380  36.307  39.751  0.00  0.00     0.228 C 
BRANCH  10  14
ATOM     14  C6  IDU d1623      65.024  34.616  36.883  0.00  0.00     0.170 C 
ATOM     15  O62 IDU d1623      65.479  35.077  35.825  0.00  0.00    -0.648 OA
BRANCH  14  16
ATOM     16  O61 IDU d1623      65.529  33.659  37.505  0.00  0.00    -0.774 OA
ENDBRANCH  14  16
ENDBRANCH  10  14
BRANCH  12  18
ATOM     18  O3  IDU d1623      60.989  35.106  38.195  0.00  0.00    -0.393 OA
ATOM     19  H   IDU d1623      61.397  35.072  37.316  0.00  0.00     0.210 HD
ENDBRANCH  12  18
BRANCH  13  20
ATOM     20  O2  IDU d1623      63.419  36.141  40.687  0.00  0.00    -0.244 OA
BRANCH  20  21
ATOM     21  S   IDU d1623      63.079  36.473  42.353  0.00  0.00     0.252 S 
ATOM     22  O3S IDU d1623      63.481  37.786  42.693  0.00  0.00    -0.572 OA
ATOM     23  O1S IDU d1623      63.736  35.456  43.118  0.00  0.00    -0.572 OA
ATOM     24  O2S IDU d1623      61.649  36.412  42.611  0.00  0.00    -0.572 OA
ENDBRANCH  20  21
ENDBRANCH  13  20
ENDBRANCH   7   8
ENDBRANCH   4   7
BRANCH   3  25
ATOM     25  C6  SGN d5702      65.875  39.514  38.984  0.00  0.00     0.227 C 
BRANCH  25  26
ATOM     26  O6  SGN d5702      66.579  39.868  37.803  0.00  0.00    -0.254 OA
BRANCH  26  27
ATOM     27  S2  SGN d5702      66.853  38.650  36.604  0.00  0.00     0.251 S 
ATOM     28  O4S SGN d5702      67.901  39.025  35.712  0.00  0.00    -0.572 OA
ATOM     29  O5S SGN d5702      65.641  38.468  35.857  0.00  0.00    -0.572 OA
ATOM     30  O6S SGN d5702      67.246  37.482  37.337  0.00  0.00    -0.572 OA
ENDBRANCH  26  27
ENDBRANCH  25  26
ENDBRANCH   3  25
BRANCH   5  31
ATOM     31  O3  SGN d5702      61.155  40.121  37.664  0.00  0.00    -0.391 OA
ATOM     32  H   SGN d5702      61.410  39.280  37.253  0.00  0.00     0.210 HD
ENDBRANCH   5  31
BRANCH   2  33
ATOM     33  N   SGN d5702      61.742  42.831  37.272  0.00  0.00    -0.189 NA
ATOM     34  H   SGN d5702      62.115  43.728  37.584  0.00  0.00     0.143 HD
BRANCH  33  35
ATOM     35  S1  SGN d5702      61.182  42.996  35.604  0.00  0.00     0.183 S 
ATOM     36  O1S SGN d5702      62.168  43.758  34.863  0.00  0.00    -0.582 OA
ATOM     37  O2S SGN d5702      59.968  43.745  35.600  0.00  0.00    -0.582 OA
ATOM     38  O3S SGN d5702      61.010  41.638  35.125  0.00  0.00    -0.582 OA
ENDBRANCH  33  35
ENDBRANCH   2  33
BRANCH   6  39
ATOM     39  O1  SGN d5702      63.679  43.135  39.243  0.00  0.00    -0.369 OA
ATOM     40  H   SGN d5702      63.474  42.461  39.910  0.00  0.00     0.212 HD
ENDBRANCH   6  39
TORSDOF 14
ENDMDL
MODEL 20
REMARK VINA RESULT:      -4.0      2.361      3.493
REMARK  14 active torsions:
REMARK  status: ('A' for Active; 'I' for Inactive)
REMARK    1  A    between atoms: C5_1  and  C6_23 
REMARK    2  A    between atoms: S2_5  and  O6_7 
REMARK    3  A    between atoms: O1_6  and  C1_35 
REMARK    4  A    between atoms: O6_7  and  C6_21 
REMARK    5  A    between atoms: O2_9  and  C2_28 
REMARK    6  A    between atoms: O2_9  and  S_13 
REMARK    7  A    between atoms: C3_10  and  O3_20 
REMARK    8  A    between atoms: C1_11  and  O4_12 
REMARK    9  A    between atoms: O4_12  and  C4_19 
REMARK   10  A    between atoms: C2_15  and  N_29 
REMARK   11  A    between atoms: C5_17  and  C6_21 
REMARK   12  A    between atoms: C6_23  and  O61_33 
REMARK   13  A    between atoms: O3_24  and  C3_26 
REMARK   14  A    between atoms: S1_27  and  N_29 
ROOT
ATOM      1  O5  SGN d5702      61.200  39.370  37.419  0.00  0.00    -0.350 OA
ATOM      2  C2  SGN d5702      63.214  38.138  37.856  0.00  0.00     0.160 C 
ATOM      3  C5  SGN d5702      61.868  40.609  37.415  0.00  0.00     0.181 C 
ATOM      4  C4  SGN d5702      63.329  40.393  36.973  0.00  0.00     0.186 C 
ATOM      5  C3  SGN d5702      63.989  39.423  37.989  0.00  0.00     0.173 C 
ATOM      6  C1  SGN d5702      61.765  38.353  38.251  0.00  0.00     0.278 C 
ENDROOT
BRANCH   4   7
ATOM      7  O4  SGN d5702      63.953  41.706  36.975  0.00  0.00    -0.348 OA
BRANCH   7   8
ATOM      8  C1  IDU d1623      64.658  42.300  35.905  0.00  0.00     0.294 C 
ATOM      9  O5  IDU d1623      63.787  42.863  34.872  0.00  0.00    -0.343 OA
ATOM     10  C5  IDU d1623      64.510  43.369  33.694  0.00  0.00     0.224 C 
ATOM     11  C4  IDU d1623      65.453  44.498  34.139  0.00  0.00     0.077 C 
ATOM     12  C3  IDU d1623      66.414  43.974  35.217  0.00  0.00     0.156 C 
ATOM     13  C2  IDU d1623      65.565  43.445  36.384  0.00  0.00     0.228 C 
BRANCH  10  14
ATOM     14  C6  IDU d1623      63.563  43.924  32.665  0.00  0.00     0.170 C 
ATOM     15  O62 IDU d1623      62.777  44.818  33.014  0.00  0.00    -0.648 OA
BRANCH  14  16
ATOM     16  O61 IDU d1623      63.619  43.452  31.511  0.00  0.00    -0.774 OA
ENDBRANCH  14  16
ENDBRANCH  10  14
BRANCH  12  18
ATOM     18  O3  IDU d1623      67.196  42.941  34.685  0.00  0.00    -0.393 OA
ATOM     19  H   IDU d1623      67.658  42.482  35.403  0.00  0.00     0.210 HD
ENDBRANCH  12  18
BRANCH  13  20
ATOM     20  O2  IDU d1623      64.733  44.471  36.871  0.00  0.00    -0.244 OA
BRANCH  20  21
ATOM     21  S   IDU d1623      64.698  44.752  38.580  0.00  0.00     0.252 S 
ATOM     22  O3S IDU d1623      64.638  46.139  38.857  0.00  0.00    -0.572 OA
ATOM     23  O1S IDU d1623      65.854  44.108  39.128  0.00  0.00    -0.572 OA
ATOM     24  O2S IDU d1623      63.504  44.172  39.175  0.00  0.00    -0.572 OA
ENDBRANCH  20  21
ENDBRANCH  13  20
ENDBRANCH   7   8
ENDBRANCH   4   7
BRANCH   3  25
ATOM     25  C6  SGN d5702      61.122  41.510  36.481  0.00  0.00     0.227 C 
BRANCH  25  26
ATOM     26  O6  SGN d5702      60.894  42.675  37.259  0.00  0.00    -0.254 OA
BRANCH  26  27
ATOM     27  S2  SGN d5702      60.398  44.125  36.455  0.00  0.00     0.251 S 
ATOM     28  O4S SGN d5702      59.264  44.711  37.094  0.00  0.00    -0.572 OA
ATOM     29  O5S SGN d5702      60.059  43.800  35.099  0.00  0.00    -0.572 OA
ATOM     30  O6S SGN d5702      61.516  45.016  36.560  0.00  0.00    -0.572 OA
ENDBRANCH  26  27
ENDBRANCH  25  26
ENDBRANCH   3  25
BRANCH   5  31
ATOM     31  O3  SGN d5702      65.325  39.181  37.621  0.00  0.00    -0.391 OA
ATOM     32  H   SGN d5702      65.844  38.967  38.412  0.00  0.00     0.210 HD
ENDBRANCH   5  31
BRANCH   2  33
ATOM     33  N   SGN d5702      63.752  37.143  38.724  0.00  0.00    -0.189 NA
ATOM     34  H   SGN d5702      63.028  36.854  39.383  0.00  0.00     0.143 HD
BRANCH  33  35
ATOM     35  S1  SGN d5702      64.315  35.725  37.835  0.00  0.00     0.183 S 
ATOM     36  O1S SGN d5702      63.170  34.890  37.531  0.00  0.00    -0.582 OA
ATOM     37  O2S SGN d5702      65.185  34.971  38.677  0.00  0.00    -0.582 OA
ATOM     38  O3S SGN d5702      64.983  36.252  36.661  0.00  0.00    -0.582 OA
ENDBRANCH  33  35
ENDBRANCH   2  33
BRANCH   6  39
ATOM     39  O1  SGN d5702      61.617  38.688  39.610  0.00  0.00    -0.369 OA
ATOM     40  H   SGN d5702      62.438  39.092  39.934  0.00  0.00     0.212 HD
ENDBRANCH   6  39
TORSDOF 14
ENDMDL
MODEL 21
REMARK VINA RESULT:      -3.9      3.618      6.033
REMARK  14 active torsions:
REMARK  status: ('A' for Active; 'I' for Inactive)
REMARK    1  A    between atoms: C5_1  and  C6_23 
REMARK    2  A    between atoms: S2_5  and  O6_7 
REMARK    3  A    between atoms: O1_6  and  C1_35 
REMARK    4  A    between atoms: O6_7  and  C6_21 
REMARK    5  A    between atoms: O2_9  and  C2_28 
REMARK    6  A    between atoms: O2_9  and  S_13 
REMARK    7  A    between atoms: C3_10  and  O3_20 
REMARK    8  A    between atoms: C1_11  and  O4_12 
REMARK    9  A    between atoms: O4_12  and  C4_19 
REMARK   10  A    between atoms: C2_15  and  N_29 
REMARK   11  A    between atoms: C5_17  and  C6_21 
REMARK   12  A    between atoms: C6_23  and  O61_33 
REMARK   13  A    between atoms: O3_24  and  C3_26 
REMARK   14  A    between atoms: S1_27  and  N_29 
ROOT
ATOM      1  O5  SGN d5702      67.281  44.024  37.654  0.00  0.00    -0.350 OA
ATOM      2  C2  SGN d5702      66.618  42.718  39.556  0.00  0.00     0.160 C 
ATOM      3  C5  SGN d5702      66.490  43.273  36.766  0.00  0.00     0.181 C 
ATOM      4  C4  SGN d5702      65.285  42.692  37.532  0.00  0.00     0.186 C 
ATOM      5  C3  SGN d5702      65.840  41.787  38.664  0.00  0.00     0.173 C 
ATOM      6  C1  SGN d5702      67.783  43.325  38.797  0.00  0.00     0.278 C 
ENDROOT
BRANCH   4   7
ATOM      7  O4  SGN d5702      64.505  41.945  36.558  0.00  0.00    -0.348 OA
BRANCH   7   8
ATOM      8  C1  IDU d1623      63.121  41.672  36.624  0.00  0.00     0.294 C 
ATOM      9  O5  IDU d1623      62.281  42.847  36.382  0.00  0.00    -0.343 OA
ATOM     10  C5  IDU d1623      60.843  42.601  36.576  0.00  0.00     0.224 C 
ATOM     11  C4  IDU d1623      60.387  41.520  35.582  0.00  0.00     0.077 C 
ATOM     12  C3  IDU d1623      61.218  40.244  35.790  0.00  0.00     0.156 C 
ATOM     13  C2  IDU d1623      62.697  40.612  35.595  0.00  0.00     0.228 C 
BRANCH  10  14
ATOM     14  C6  IDU d1623      60.034  43.844  36.324  0.00  0.00     0.170 C 
ATOM     15  O62 IDU d1623      59.733  44.554  37.295  0.00  0.00    -0.648 OA
BRANCH  14  16
ATOM     16  O61 IDU d1623      59.707  44.095  35.145  0.00  0.00    -0.774 OA
ENDBRANCH  14  16
ENDBRANCH  10  14
BRANCH  12  18
ATOM     18  O3  IDU d1623      61.010  39.756  37.086  0.00  0.00    -0.393 OA
ATOM     19  H   IDU d1623      61.551  38.963  37.223  0.00  0.00     0.210 HD
ENDBRANCH  12  18
BRANCH  13  20
ATOM     20  O2  IDU d1623      62.887  41.163  34.314  0.00  0.00    -0.244 OA
BRANCH  20  21
ATOM     21  S   IDU d1623      64.333  40.752  33.453  0.00  0.00     0.252 S 
ATOM     22  O3S IDU d1623      65.078  39.780  34.163  0.00  0.00    -0.572 OA
ATOM     23  O1S IDU d1623      65.045  41.975  33.235  0.00  0.00    -0.572 OA
ATOM     24  O2S IDU d1623      64.015  40.152  32.166  0.00  0.00    -0.572 OA
ENDBRANCH  20  21
ENDBRANCH  13  20
ENDBRANCH   7   8
ENDBRANCH   4   7
BRANCH   3  25
ATOM     25  C6  SGN d5702      66.069  44.193  35.663  0.00  0.00     0.227 C 
BRANCH  25  26
ATOM     26  O6  SGN d5702      65.320  45.193  36.338  0.00  0.00    -0.254 OA
BRANCH  26  27
ATOM     27  S2  SGN d5702      63.948  45.882  35.538  0.00  0.00     0.251 S 
ATOM     28  O4S SGN d5702      62.888  46.145  36.457  0.00  0.00    -0.572 OA
ATOM     29  O5S SGN d5702      63.490  44.955  34.542  0.00  0.00    -0.572 OA
ATOM     30  O6S SGN d5702      64.416  47.120  34.986  0.00  0.00    -0.572 OA
ENDBRANCH  26  27
ENDBRANCH  25  26
ENDBRANCH   3  25
BRANCH   5  31
ATOM     31  O3  SGN d5702      64.775  41.241  39.405  0.00  0.00    -0.391 OA
ATOM     32  H   SGN d5702      64.647  41.758  40.216  0.00  0.00     0.210 HD
ENDBRANCH   5  31
BRANCH   2  33
ATOM     33  N   SGN d5702      67.155  42.004  40.667  0.00  0.00    -0.189 NA
ATOM     34  H   SGN d5702      68.163  42.164  40.706  0.00  0.00     0.143 HD
BRANCH  33  35
ATOM     35  S1  SGN d5702      66.437  42.522  42.196  0.00  0.00     0.183 S 
ATOM     36  O1S SGN d5702      67.360  43.427  42.853  0.00  0.00    -0.582 OA
ATOM     37  O2S SGN d5702      66.279  41.383  43.039  0.00  0.00    -0.582 OA
ATOM     38  O3S SGN d5702      65.174  43.137  41.834  0.00  0.00    -0.582 OA
ENDBRANCH  33  35
ENDBRANCH   2  33
BRANCH   6  39
ATOM     39  O1  SGN d5702      68.737  42.365  38.409  0.00  0.00    -0.369 OA
ATOM     40  H   SGN d5702      68.321  41.489  38.384  0.00  0.00     0.212 HD
ENDBRANCH   6  39
TORSDOF 14
ENDMDL
MODEL 22
REMARK VINA RESULT:      -3.9      2.899      4.557
REMARK  14 active torsions:
REMARK  status: ('A' for Active; 'I' for Inactive)
REMARK    1  A    between atoms: C5_1  and  C6_23 
REMARK    2  A    between atoms: S2_5  and  O6_7 
REMARK    3  A    between atoms: O1_6  and  C1_35 
REMARK    4  A    between atoms: O6_7  and  C6_21 
REMARK    5  A    between atoms: O2_9  and  C2_28 
REMARK    6  A    between atoms: O2_9  and  S_13 
REMARK    7  A    between atoms: C3_10  and  O3_20 
REMARK    8  A    between atoms: C1_11  and  O4_12 
REMARK    9  A    between atoms: O4_12  and  C4_19 
REMARK   10  A    between atoms: C2_15  and  N_29 
REMARK   11  A    between atoms: C5_17  and  C6_21 
REMARK   12  A    between atoms: C6_23  and  O61_33 
REMARK   13  A    between atoms: O3_24  and  C3_26 
REMARK   14  A    between atoms: S1_27  and  N_29 
ROOT
ATOM      1  O5  SGN d5702      62.343  38.436  37.883  0.00  0.00    -0.350 OA
ATOM      2  C2  SGN d5702      64.470  37.446  37.372  0.00  0.00     0.160 C 
ATOM      3  C5  SGN d5702      62.912  39.686  38.189  0.00  0.00     0.181 C 
ATOM      4  C4  SGN d5702      64.217  39.857  37.386  0.00  0.00     0.186 C 
ATOM      5  C3  SGN d5702      65.175  38.707  37.796  0.00  0.00     0.173 C 
ATOM      6  C1  SGN d5702      63.164  37.291  38.130  0.00  0.00     0.278 C 
ENDROOT
BRANCH   4   7
ATOM      7  O4  SGN d5702      64.741  41.167  37.736  0.00  0.00    -0.348 OA
BRANCH   7   8
ATOM      8  C1  IDU d1623      65.209  42.150  36.836  0.00  0.00     0.294 C 
ATOM      9  O5  IDU d1623      64.189  42.612  35.893  0.00  0.00    -0.343 OA
ATOM     10  C5  IDU d1623      64.699  43.540  34.870  0.00  0.00     0.224 C 
ATOM     11  C4  IDU d1623      65.253  44.792  35.569  0.00  0.00     0.077 C 
ATOM     12  C3  IDU d1623      66.348  44.384  36.568  0.00  0.00     0.156 C 
ATOM     13  C2  IDU d1623      65.725  43.399  37.569  0.00  0.00     0.228 C 
BRANCH  10  14
ATOM     14  C6  IDU d1623      63.609  43.971  33.927  0.00  0.00     0.170 C 
ATOM     15  O62 IDU d1623      63.919  44.228  32.753  0.00  0.00    -0.648 OA
BRANCH  14  16
ATOM     16  O61 IDU d1623      62.448  44.047  34.377  0.00  0.00    -0.774 OA
ENDBRANCH  14  16
ENDBRANCH  10  14
BRANCH  12  18
ATOM     18  O3  IDU d1623      67.402  43.769  35.881  0.00  0.00    -0.393 OA
ATOM     19  H   IDU d1623      68.140  44.393  35.797  0.00  0.00     0.210 HD
ENDBRANCH  12  18
BRANCH  13  20
ATOM     20  O2  IDU d1623      64.624  44.001  38.209  0.00  0.00    -0.244 OA
BRANCH  20  21
ATOM     21  S   IDU d1623      64.491  43.843  39.929  0.00  0.00     0.252 S 
ATOM     22  O3S IDU d1623      65.662  43.261  40.469  0.00  0.00    -0.572 OA
ATOM     23  O1S IDU d1623      63.304  43.083  40.182  0.00  0.00    -0.572 OA
ATOM     24  O2S IDU d1623      64.363  45.148  40.559  0.00  0.00    -0.572 OA
ENDBRANCH  20  21
ENDBRANCH  13  20
ENDBRANCH   7   8
ENDBRANCH   4   7
BRANCH   3  25
ATOM     25  C6  SGN d5702      61.896  40.730  37.847  0.00  0.00     0.227 C 
BRANCH  25  26
ATOM     26  O6  SGN d5702      60.991  40.041  36.997  0.00  0.00    -0.254 OA
BRANCH  26  27
ATOM     27  S2  SGN d5702      60.752  40.632  35.387  0.00  0.00     0.251 S 
ATOM     28  O4S SGN d5702      61.991  40.751  34.689  0.00  0.00    -0.572 OA
ATOM     29  O5S SGN d5702      60.129  41.922  35.465  0.00  0.00    -0.572 OA
ATOM     30  O6S SGN d5702      59.935  39.647  34.742  0.00  0.00    -0.572 OA
ENDBRANCH  26  27
ENDBRANCH  25  26
ENDBRANCH   3  25
BRANCH   5  31
ATOM     31  O3  SGN d5702      66.381  38.810  37.078  0.00  0.00    -0.391 OA
ATOM     32  H   SGN d5702      66.198  38.741  36.127  0.00  0.00     0.210 HD
ENDBRANCH   5  31
BRANCH   2  33
ATOM     33  N   SGN d5702      65.274  36.306  37.666  0.00  0.00    -0.189 NA
ATOM     34  H   SGN d5702      64.756  35.690  38.294  0.00  0.00     0.143 HD
BRANCH  33  35
ATOM     35  S1  SGN d5702      65.703  35.405  36.209  0.00  0.00     0.183 S 
ATOM     36  O1S SGN d5702      66.841  34.560  36.510  0.00  0.00    -0.582 OA
ATOM     37  O2S SGN d5702      66.109  36.329  35.201  0.00  0.00    -0.582 OA
ATOM     38  O3S SGN d5702      64.506  34.669  35.851  0.00  0.00    -0.582 OA
ENDBRANCH  33  35
ENDBRANCH   2  33
BRANCH   6  39
ATOM     39  O1  SGN d5702      63.359  37.112  39.513  0.00  0.00    -0.369 OA
ATOM     40  H   SGN d5702      64.213  37.492  39.771  0.00  0.00     0.212 HD
ENDBRANCH   6  39
TORSDOF 14
ENDMDL
MODEL 23
REMARK VINA RESULT:      -3.9      2.906      7.668
REMARK  14 active torsions:
REMARK  status: ('A' for Active; 'I' for Inactive)
REMARK    1  A    between atoms: C5_1  and  C6_23 
REMARK    2  A    between atoms: S2_5  and  O6_7 
REMARK    3  A    between atoms: O1_6  and  C1_35 
REMARK    4  A    between atoms: O6_7  and  C6_21 
REMARK    5  A    between atoms: O2_9  and  C2_28 
REMARK    6  A    between atoms: O2_9  and  S_13 
REMARK    7  A    between atoms: C3_10  and  O3_20 
REMARK    8  A    between atoms: C1_11  and  O4_12 
REMARK    9  A    between atoms: O4_12  and  C4_19 
REMARK   10  A    between atoms: C2_15  and  N_29 
REMARK   11  A    between atoms: C5_17  and  C6_21 
REMARK   12  A    between atoms: C6_23  and  O61_33 
REMARK   13  A    between atoms: O3_24  and  C3_26 
REMARK   14  A    between atoms: S1_27  and  N_29 
ROOT
ATOM      1  O5  SGN d5702      61.445  40.739  37.155  0.00  0.00    -0.350 OA
ATOM      2  C2  SGN d5702      62.886  41.694  35.489  0.00  0.00     0.160 C 
ATOM      3  C5  SGN d5702      62.222  39.571  37.268  0.00  0.00     0.181 C 
ATOM      4  C4  SGN d5702      63.685  39.904  36.915  0.00  0.00     0.186 C 
ATOM      5  C3  SGN d5702      63.708  40.432  35.455  0.00  0.00     0.173 C 
ATOM      6  C1  SGN d5702      61.452  41.380  35.876  0.00  0.00     0.278 C 
ENDROOT
BRANCH   4   7
ATOM      7  O4  SGN d5702      64.431  38.665  37.067  0.00  0.00    -0.348 OA
BRANCH   7   8
ATOM      8  C1  IDU d1623      65.741  38.533  37.579  0.00  0.00     0.294 C 
ATOM      9  O5  IDU d1623      65.873  38.976  38.969  0.00  0.00    -0.343 OA
ATOM     10  C5  IDU d1623      67.256  38.964  39.469  0.00  0.00     0.224 C 
ATOM     11  C4  IDU d1623      67.791  37.523  39.412  0.00  0.00     0.077 C 
ATOM     12  C3  IDU d1623      67.700  36.995  37.972  0.00  0.00     0.156 C 
ATOM     13  C2  IDU d1623      66.229  37.076  37.536  0.00  0.00     0.228 C 
BRANCH  10  14
ATOM     14  C6  IDU d1623      67.329  39.437  40.895  0.00  0.00     0.170 C 
ATOM     15  O62 IDU d1623      67.522  38.593  41.783  0.00  0.00    -0.648 OA
BRANCH  14  16
ATOM     16  O61 IDU d1623      67.189  40.659  41.109  0.00  0.00    -0.774 OA
ENDBRANCH  14  16
ENDBRANCH  10  14
BRANCH  12  18
ATOM     18  O3  IDU d1623      68.495  37.785  37.133  0.00  0.00    -0.393 OA
ATOM     19  H   IDU d1623      68.290  38.722  37.281  0.00  0.00     0.210 HD
ENDBRANCH  12  18
BRANCH  13  20
ATOM     20  O2  IDU d1623      65.427  36.333  38.423  0.00  0.00    -0.244 OA
BRANCH  20  21
ATOM     21  S   IDU d1623      64.292  35.209  37.753  0.00  0.00     0.252 S 
ATOM     22  O3S IDU d1623      64.486  35.075  36.357  0.00  0.00    -0.572 OA
ATOM     23  O1S IDU d1623      62.987  35.679  38.109  0.00  0.00    -0.572 OA
ATOM     24  O2S IDU d1623      64.487  33.881  38.313  0.00  0.00    -0.572 OA
ENDBRANCH  20  21
ENDBRANCH  13  20
ENDBRANCH   7   8
ENDBRANCH   4   7
BRANCH   3  25
ATOM     25  C6  SGN d5702      62.077  39.080  38.675  0.00  0.00     0.227 C 
BRANCH  25  26
ATOM     26  O6  SGN d5702      62.726  40.083  39.442  0.00  0.00    -0.254 OA
BRANCH  26  27
ATOM     27  S2  SGN d5702      62.611  40.012  41.167  0.00  0.00     0.251 S 
ATOM     28  O4S SGN d5702      62.150  41.249  41.709  0.00  0.00    -0.572 OA
ATOM     29  O5S SGN d5702      63.912  39.721  41.698  0.00  0.00    -0.572 OA
ATOM     30  O6S SGN d5702      61.648  38.985  41.439  0.00  0.00    -0.572 OA
ENDBRANCH  26  27
ENDBRANCH  25  26
ENDBRANCH   3  25
BRANCH   5  31
ATOM     31  O3  SGN d5702      65.024  40.764  35.087  0.00  0.00    -0.391 OA
ATOM     32  H   SGN d5702      65.112  40.715  34.122  0.00  0.00     0.210 HD
ENDBRANCH   5  31
BRANCH   2  33
ATOM     33  N   SGN d5702      62.858  42.301  34.199  0.00  0.00    -0.189 NA
ATOM     34  H   SGN d5702      61.896  42.309  33.859  0.00  0.00     0.143 HD
BRANCH  33  35
ATOM     35  S1  SGN d5702      63.464  43.960  34.236  0.00  0.00     0.183 S 
ATOM     36  O1S SGN d5702      62.965  44.603  35.435  0.00  0.00    -0.582 OA
ATOM     37  O2S SGN d5702      62.934  44.667  33.117  0.00  0.00    -0.582 OA
ATOM     38  O3S SGN d5702      64.909  43.838  34.195  0.00  0.00    -0.582 OA
ENDBRANCH  33  35
ENDBRANCH   2  33
BRANCH   6  39
ATOM     39  O1  SGN d5702      60.795  40.582  34.920  0.00  0.00    -0.369 OA
ATOM     40  H   SGN d5702      61.201  40.721  34.050  0.00  0.00     0.212 HD
ENDBRANCH   6  39
TORSDOF 14
ENDMDL
MODEL 24
REMARK VINA RESULT:      -3.9      2.445      3.195
REMARK  14 active torsions:
REMARK  status: ('A' for Active; 'I' for Inactive)
REMARK    1  A    between atoms: C5_1  and  C6_23 
REMARK    2  A    between atoms: S2_5  and  O6_7 
REMARK    3  A    between atoms: O1_6  and  C1_35 
REMARK    4  A    between atoms: O6_7  and  C6_21 
REMARK    5  A    between atoms: O2_9  and  C2_28 
REMARK    6  A    between atoms: O2_9  and  S_13 
REMARK    7  A    between atoms: C3_10  and  O3_20 
REMARK    8  A    between atoms: C1_11  and  O4_12 
REMARK    9  A    between atoms: O4_12  and  C4_19 
REMARK   10  A    between atoms: C2_15  and  N_29 
REMARK   11  A    between atoms: C5_17  and  C6_21 
REMARK   12  A    between atoms: C6_23  and  O61_33 
REMARK   13  A    between atoms: O3_24  and  C3_26 
REMARK   14  A    between atoms: S1_27  and  N_29 
ROOT
ATOM      1  O5  SGN d5702      62.078  38.708  38.597  0.00  0.00    -0.350 OA
ATOM      2  C2  SGN d5702      63.413  36.752  38.205  0.00  0.00     0.160 C 
ATOM      3  C5  SGN d5702      63.121  39.585  38.249  0.00  0.00     0.181 C 
ATOM      4  C4  SGN d5702      64.055  38.882  37.243  0.00  0.00     0.186 C 
ATOM      5  C3  SGN d5702      64.619  37.612  37.933  0.00  0.00     0.173 C 
ATOM      6  C1  SGN d5702      62.469  37.454  39.164  0.00  0.00     0.278 C 
ENDROOT
BRANCH   4   7
ATOM      7  O4  SGN d5702      65.096  39.844  36.915  0.00  0.00    -0.348 OA
BRANCH   7   8
ATOM      8  C1  IDU d1623      65.741  39.986  35.666  0.00  0.00     0.294 C 
ATOM      9  O5  IDU d1623      64.824  40.291  34.566  0.00  0.00    -0.343 OA
ATOM     10  C5  IDU d1623      65.469  40.315  33.243  0.00  0.00     0.224 C 
ATOM     11  C4  IDU d1623      66.547  41.411  33.236  0.00  0.00     0.077 C 
ATOM     12  C3  IDU d1623      67.560  41.145  34.361  0.00  0.00     0.156 C 
ATOM     13  C2  IDU d1623      66.788  41.111  35.689  0.00  0.00     0.228 C 
BRANCH  10  14
ATOM     14  C6  IDU d1623      64.477  40.623  32.154  0.00  0.00     0.170 C 
ATOM     15  O62 IDU d1623      64.176  39.716  31.363  0.00  0.00    -0.648 OA
BRANCH  14  16
ATOM     16  O61 IDU d1623      64.009  41.779  32.106  0.00  0.00    -0.774 OA
ENDBRANCH  14  16
ENDBRANCH  10  14
BRANCH  12  18
ATOM     18  O3  IDU d1623      68.192  39.915  34.140  0.00  0.00    -0.393 OA
ATOM     19  H   IDU d1623      69.154  40.035  34.176  0.00  0.00     0.210 HD
ENDBRANCH  12  18
BRANCH  13  20
ATOM     20  O2  IDU d1623      66.102  42.327  35.872  0.00  0.00    -0.244 OA
BRANCH  20  21
ATOM     21  S   IDU d1623      66.512  43.298  37.247  0.00  0.00     0.252 S 
ATOM     22  O3S IDU d1623      66.264  42.592  38.449  0.00  0.00    -0.572 OA
ATOM     23  O1S IDU d1623      65.764  44.514  37.131  0.00  0.00    -0.572 OA
ATOM     24  O2S IDU d1623      67.932  43.612  37.252  0.00  0.00    -0.572 OA
ENDBRANCH  20  21
ENDBRANCH  13  20
ENDBRANCH   7   8
ENDBRANCH   4   7
BRANCH   3  25
ATOM     25  C6  SGN d5702      62.492  40.814  37.672  0.00  0.00     0.227 C 
BRANCH  25  26
ATOM     26  O6  SGN d5702      61.353  40.311  36.989  0.00  0.00    -0.254 OA
BRANCH  26  27
ATOM     27  S2  SGN d5702      60.882  41.059  35.501  0.00  0.00     0.251 S 
ATOM     28  O4S SGN d5702      62.017  41.529  34.774  0.00  0.00    -0.572 OA
ATOM     29  O5S SGN d5702      60.023  42.168  35.802  0.00  0.00    -0.572 OA
ATOM     30  O6S SGN d5702      60.231  40.026  34.750  0.00  0.00    -0.572 OA
ENDBRANCH  26  27
ENDBRANCH  25  26
ENDBRANCH   3  25
BRANCH   5  31
ATOM     31  O3  SGN d5702      65.471  36.925  37.048  0.00  0.00    -0.391 OA
ATOM     32  H   SGN d5702      65.955  36.239  37.533  0.00  0.00     0.210 HD
ENDBRANCH   5  31
BRANCH   2  33
ATOM     33  N   SGN d5702      63.808  35.525  38.814  0.00  0.00    -0.189 NA
ATOM     34  H   SGN d5702      63.312  35.422  39.700  0.00  0.00     0.143 HD
BRANCH  33  35
ATOM     35  S1  SGN d5702      63.442  34.132  37.791  0.00  0.00     0.183 S 
ATOM     36  O1S SGN d5702      62.018  33.871  37.864  0.00  0.00    -0.582 OA
ATOM     37  O2S SGN d5702      64.115  32.988  38.314  0.00  0.00    -0.582 OA
ATOM     38  O3S SGN d5702      63.902  34.502  36.466  0.00  0.00    -0.582 OA
ENDBRANCH  33  35
ENDBRANCH   2  33
BRANCH   6  39
ATOM     39  O1  SGN d5702      63.034  37.644  40.439  0.00  0.00    -0.369 OA
ATOM     40  H   SGN d5702      62.756  38.504  40.791  0.00  0.00     0.212 HD
ENDBRANCH   6  39
TORSDOF 14
ENDMDL
MODEL 25
REMARK VINA RESULT:      -3.9      3.602      5.534
REMARK  14 active torsions:
REMARK  status: ('A' for Active; 'I' for Inactive)
REMARK    1  A    between atoms: C5_1  and  C6_23 
REMARK    2  A    between atoms: S2_5  and  O6_7 
REMARK    3  A    between atoms: O1_6  and  C1_35 
REMARK    4  A    between atoms: O6_7  and  C6_21 
REMARK    5  A    between atoms: O2_9  and  C2_28 
REMARK    6  A    between atoms: O2_9  and  S_13 
REMARK    7  A    between atoms: C3_10  and  O3_20 
REMARK    8  A    between atoms: C1_11  and  O4_12 
REMARK    9  A    between atoms: O4_12  and  C4_19 
REMARK   10  A    between atoms: C2_15  and  N_29 
REMARK   11  A    between atoms: C5_17  and  C6_21 
REMARK   12  A    between atoms: C6_23  and  O61_33 
REMARK   13  A    between atoms: O3_24  and  C3_26 
REMARK   14  A    between atoms: S1_27  and  N_29 
ROOT
ATOM      1  O5  SGN d5702      62.779  37.880  38.734  0.00  0.00    -0.350 OA
ATOM      2  C2  SGN d5702      63.670  38.050  40.957  0.00  0.00     0.160 C 
ATOM      3  C5  SGN d5702      62.400  39.234  38.700  0.00  0.00     0.181 C 
ATOM      4  C4  SGN d5702      63.336  40.043  39.620  0.00  0.00     0.186 C 
ATOM      5  C3  SGN d5702      63.190  39.474  41.056  0.00  0.00     0.173 C 
ATOM      6  C1  SGN d5702      62.776  37.256  40.022  0.00  0.00     0.278 C 
ENDROOT
BRANCH   4   7
ATOM      7  O4  SGN d5702      62.900  41.428  39.526  0.00  0.00    -0.348 OA
BRANCH   7   8
ATOM      8  C1  IDU d1623      63.734  42.560  39.388  0.00  0.00     0.294 C 
ATOM      9  O5  IDU d1623      64.570  42.528  38.186  0.00  0.00    -0.343 OA
ATOM     10  C5  IDU d1623      65.532  43.638  38.100  0.00  0.00     0.224 C 
ATOM     11  C4  IDU d1623      64.755  44.965  38.061  0.00  0.00     0.077 C 
ATOM     12  C3  IDU d1623      63.863  45.077  39.307  0.00  0.00     0.156 C 
ATOM     13  C2  IDU d1623      62.921  43.863  39.320  0.00  0.00     0.228 C 
BRANCH  10  14
ATOM     14  C6  IDU d1623      66.367  43.545  36.852  0.00  0.00     0.170 C 
ATOM     15  O62 IDU d1623      65.783  43.428  35.764  0.00  0.00    -0.648 OA
BRANCH  14  16
ATOM     16  O61 IDU d1623      67.608  43.590  36.980  0.00  0.00    -0.774 OA
ENDBRANCH  14  16
ENDBRANCH  10  14
BRANCH  12  18
ATOM     18  O3  IDU d1623      64.663  45.077  40.457  0.00  0.00    -0.393 OA
ATOM     19  H   IDU d1623      65.251  44.305  40.441  0.00  0.00     0.210 HD
ENDBRANCH  12  18
BRANCH  13  20
ATOM     20  O2  IDU d1623      62.167  43.833  38.132  0.00  0.00    -0.244 OA
BRANCH  20  21
ATOM     21  S   IDU d1623      60.981  45.071  37.884  0.00  0.00     0.252 S 
ATOM     22  O3S IDU d1623      59.836  44.545  37.240  0.00  0.00    -0.572 OA
ATOM     23  O1S IDU d1623      61.625  46.117  37.147  0.00  0.00    -0.572 OA
ATOM     24  O2S IDU d1623      60.517  45.604  39.156  0.00  0.00    -0.572 OA
ENDBRANCH  20  21
ENDBRANCH  13  20
ENDBRANCH   7   8
ENDBRANCH   4   7
BRANCH   3  25
ATOM     25  C6  SGN d5702      62.484  39.680  37.274  0.00  0.00     0.227 C 
BRANCH  25  26
ATOM     26  O6  SGN d5702      61.123  39.780  36.880  0.00  0.00    -0.254 OA
BRANCH  26  27
ATOM     27  S2  SGN d5702      60.752  40.531  35.365  0.00  0.00     0.251 S 
ATOM     28  O4S SGN d5702      60.074  41.772  35.553  0.00  0.00    -0.572 OA
ATOM     29  O5S SGN d5702      59.911  39.643  34.613  0.00  0.00    -0.572 OA
ATOM     30  O6S SGN d5702      62.020  40.771  34.742  0.00  0.00    -0.572 OA
ENDBRANCH  26  27
ENDBRANCH  25  26
ENDBRANCH   3  25
BRANCH   5  31
ATOM     31  O3  SGN d5702      64.038  40.173  41.935  0.00  0.00    -0.391 OA
ATOM     32  H   SGN d5702      64.679  39.557  42.325  0.00  0.00     0.210 HD
ENDBRANCH   5  31
BRANCH   2  33
ATOM     33  N   SGN d5702      63.617  37.420  42.236  0.00  0.00    -0.189 NA
ATOM     34  H   SGN d5702      63.008  36.604  42.177  0.00  0.00     0.143 HD
BRANCH  33  35
ATOM     35  S1  SGN d5702      65.215  36.900  42.782  0.00  0.00     0.183 S 
ATOM     36  O1S SGN d5702      65.850  36.163  41.708  0.00  0.00    -0.582 OA
ATOM     37  O2S SGN d5702      65.055  36.006  43.881  0.00  0.00    -0.582 OA
ATOM     38  O3S SGN d5702      65.909  38.122  43.144  0.00  0.00    -0.582 OA
ENDBRANCH  33  35
ENDBRANCH   2  33
BRANCH   6  39
ATOM     39  O1  SGN d5702      61.460  37.130  40.506  0.00  0.00    -0.369 OA
ATOM     40  H   SGN d5702      61.469  36.632  41.338  0.00  0.00     0.212 HD
ENDBRANCH   6  39
TORSDOF 14
ENDMDL
MODEL 26
REMARK VINA RESULT:      -3.9      3.920      8.784
REMARK  14 active torsions:
REMARK  status: ('A' for Active; 'I' for Inactive)
REMARK    1  A    between atoms: C5_1  and  C6_23 
REMARK    2  A    between atoms: S2_5  and  O6_7 
REMARK    3  A    between atoms: O1_6  and  C1_35 
REMARK    4  A    between atoms: O6_7  and  C6_21 
REMARK    5  A    between atoms: O2_9  and  C2_28 
REMARK    6  A    between atoms: O2_9  and  S_13 
REMARK    7  A    between atoms: C3_10  and  O3_20 
REMARK    8  A    between atoms: C1_11  and  O4_12 
REMARK    9  A    between atoms: O4_12  and  C4_19 
REMARK   10  A    between atoms: C2_15  and  N_29 
REMARK   11  A    between atoms: C5_17  and  C6_21 
REMARK   12  A    between atoms: C6_23  and  O61_33 
REMARK   13  A    between atoms: O3_24  and  C3_26 
REMARK   14  A    between atoms: S1_27  and  N_29 
ROOT
ATOM      1  O5  SGN d5702      64.245  40.316  38.860  0.00  0.00    -0.350 OA
ATOM      2  C2  SGN d5702      62.197  40.492  37.619  0.00  0.00     0.160 C 
ATOM      3  C5  SGN d5702      63.923  39.040  39.358  0.00  0.00     0.181 C 
ATOM      4  C4  SGN d5702      62.997  38.325  38.354  0.00  0.00     0.186 C 
ATOM      5  C3  SGN d5702      61.716  39.188  38.199  0.00  0.00     0.173 C 
ATOM      6  C1  SGN d5702      63.141  41.183  38.586  0.00  0.00     0.278 C 
ENDROOT
BRANCH   4   7
ATOM      7  O4  SGN d5702      62.718  37.015  38.920  0.00  0.00    -0.348 OA
BRANCH   7   8
ATOM      8  C1  IDU d1623      62.707  35.787  38.223  0.00  0.00     0.294 C 
ATOM      9  O5  IDU d1623      63.988  35.461  37.591  0.00  0.00    -0.343 OA
ATOM     10  C5  IDU d1623      63.950  34.249  36.757  0.00  0.00     0.224 C 
ATOM     11  C4  IDU d1623      63.577  33.049  37.643  0.00  0.00     0.077 C 
ATOM     12  C3  IDU d1623      62.228  33.313  38.330  0.00  0.00     0.156 C 
ATOM     13  C2  IDU d1623      62.363  34.607  39.147  0.00  0.00     0.228 C 
BRANCH  10  14
ATOM     14  C6  IDU d1623      65.288  33.973  36.129  0.00  0.00     0.170 C 
ATOM     15  O62 IDU d1623      65.468  34.330  34.954  0.00  0.00    -0.648 OA
BRANCH  14  16
ATOM     16  O61 IDU d1623      66.149  33.396  36.825  0.00  0.00    -0.774 OA
ENDBRANCH  14  16
ENDBRANCH  10  14
BRANCH  12  18
ATOM     18  O3  IDU d1623      61.230  33.460  37.358  0.00  0.00    -0.393 OA
ATOM     19  H   IDU d1623      60.578  32.748  37.454  0.00  0.00     0.210 HD
ENDBRANCH  12  18
BRANCH  13  20
ATOM     20  O2  IDU d1623      63.412  34.476  40.077  0.00  0.00    -0.244 OA
BRANCH  20  21
ATOM     21  S   IDU d1623      63.020  34.531  41.764  0.00  0.00     0.252 S 
ATOM     22  O3S IDU d1623      61.872  33.750  42.035  0.00  0.00    -0.572 OA
ATOM     23  O1S IDU d1623      62.869  35.913  42.108  0.00  0.00    -0.572 OA
ATOM     24  O2S IDU d1623      64.093  33.957  42.562  0.00  0.00    -0.572 OA
ENDBRANCH  20  21
ENDBRANCH  13  20
ENDBRANCH   7   8
ENDBRANCH   4   7
BRANCH   3  25
ATOM     25  C6  SGN d5702      65.212  38.307  39.561  0.00  0.00     0.227 C 
BRANCH  25  26
ATOM     26  O6  SGN d5702      65.202  38.002  40.947  0.00  0.00    -0.254 OA
BRANCH  26  27
ATOM     27  S2  SGN d5702      66.401  36.916  41.566  0.00  0.00     0.251 S 
ATOM     28  O4S SGN d5702      66.425  35.695  40.828  0.00  0.00    -0.572 OA
ATOM     29  O5S SGN d5702      66.091  36.632  42.938  0.00  0.00    -0.572 OA
ATOM     30  O6S SGN d5702      67.650  37.599  41.398  0.00  0.00    -0.572 OA
ENDBRANCH  26  27
ENDBRANCH  25  26
ENDBRANCH   3  25
BRANCH   5  31
ATOM     31  O3  SGN d5702      60.841  38.583  37.278  0.00  0.00    -0.391 OA
ATOM     32  H   SGN d5702      60.910  37.618  37.352  0.00  0.00     0.210 HD
ENDBRANCH   5  31
BRANCH   2  33
ATOM     33  N   SGN d5702      61.096  41.370  37.395  0.00  0.00    -0.189 NA
ATOM     34  H   SGN d5702      61.245  42.228  37.925  0.00  0.00     0.143 HD
BRANCH  33  35
ATOM     35  S1  SGN d5702      60.914  41.779  35.686  0.00  0.00     0.183 S 
ATOM     36  O1S SGN d5702      62.151  42.374  35.223  0.00  0.00    -0.582 OA
ATOM     37  O2S SGN d5702      59.889  42.761  35.556  0.00  0.00    -0.582 OA
ATOM     38  O3S SGN d5702      60.585  40.528  35.029  0.00  0.00    -0.582 OA
ENDBRANCH  33  35
ENDBRANCH   2  33
BRANCH   6  39
ATOM     39  O1  SGN d5702      62.506  41.567  39.783  0.00  0.00    -0.369 OA
ATOM     40  H   SGN d5702      63.167  41.647  40.488  0.00  0.00     0.212 HD
ENDBRANCH   6  39
TORSDOF 14
ENDMDL
MODEL 27
REMARK VINA RESULT:      -3.9      3.751      8.513
REMARK  14 active torsions:
REMARK  status: ('A' for Active; 'I' for Inactive)
REMARK    1  A    between atoms: C5_1  and  C6_23 
REMARK    2  A    between atoms: S2_5  and  O6_7 
REMARK    3  A    between atoms: O1_6  and  C1_35 
REMARK    4  A    between atoms: O6_7  and  C6_21 
REMARK    5  A    between atoms: O2_9  and  C2_28 
REMARK    6  A    between atoms: O2_9  and  S_13 
REMARK    7  A    between atoms: C3_10  and  O3_20 
REMARK    8  A    between atoms: C1_11  and  O4_12 
REMARK    9  A    between atoms: O4_12  and  C4_19 
REMARK   10  A    between atoms: C2_15  and  N_29 
REMARK   11  A    between atoms: C5_17  and  C6_21 
REMARK   12  A    between atoms: C6_23  and  O61_33 
REMARK   13  A    between atoms: O3_24  and  C3_26 
REMARK   14  A    between atoms: S1_27  and  N_29 
ROOT
ATOM      1  O5  SGN d5702      64.626  40.246  38.441  0.00  0.00    -0.350 OA
ATOM      2  C2  SGN d5702      62.443  40.468  37.467  0.00  0.00     0.160 C 
ATOM      3  C5  SGN d5702      64.329  38.995  39.011  0.00  0.00     0.181 C 
ATOM      4  C4  SGN d5702      63.259  38.291  38.152  0.00  0.00     0.186 C 
ATOM      5  C3  SGN d5702      61.998  39.196  38.138  0.00  0.00     0.173 C 
ATOM      6  C1  SGN d5702      63.526  41.147  38.287  0.00  0.00     0.278 C 
ENDROOT
BRANCH   4   7
ATOM      7  O4  SGN d5702      63.012  37.005  38.785  0.00  0.00    -0.348 OA
BRANCH   7   8
ATOM      8  C1  IDU d1623      62.901  35.758  38.131  0.00  0.00     0.294 C 
ATOM      9  O5  IDU d1623      64.178  35.243  37.632  0.00  0.00    -0.343 OA
ATOM     10  C5  IDU d1623      64.054  34.010  36.839  0.00  0.00     0.224 C 
ATOM     11  C4  IDU d1623      63.450  32.908  37.726  0.00  0.00     0.077 C 
ATOM     12  C3  IDU d1623      62.092  33.374  38.275  0.00  0.00     0.156 C 
ATOM     13  C2  IDU d1623      62.325  34.676  39.058  0.00  0.00     0.228 C 
BRANCH  10  14
ATOM     14  C6  IDU d1623      65.394  33.536  36.347  0.00  0.00     0.170 C 
ATOM     15  O62 IDU d1623      66.134  32.940  37.145  0.00  0.00    -0.648 OA
BRANCH  14  16
ATOM     16  O61 IDU d1623      65.691  33.770  35.158  0.00  0.00    -0.774 OA
ENDBRANCH  14  16
ENDBRANCH  10  14
BRANCH  12  18
ATOM     18  O3  IDU d1623      61.211  33.604  37.211  0.00  0.00    -0.393 OA
ATOM     19  H   IDU d1623      60.312  33.354  37.476  0.00  0.00     0.210 HD
ENDBRANCH  12  18
BRANCH  13  20
ATOM     20  O2  IDU d1623      63.261  34.453  40.085  0.00  0.00    -0.244 OA
BRANCH  20  21
ATOM     21  S   IDU d1623      62.733  34.632  41.726  0.00  0.00     0.252 S 
ATOM     22  O3S IDU d1623      63.839  34.827  42.587  0.00  0.00    -0.572 OA
ATOM     23  O1S IDU d1623      61.959  33.469  42.039  0.00  0.00    -0.572 OA
ATOM     24  O2S IDU d1623      61.897  35.813  41.873  0.00  0.00    -0.572 OA
ENDBRANCH  20  21
ENDBRANCH  13  20
ENDBRANCH   7   8
ENDBRANCH   4   7
BRANCH   3  25
ATOM     25  C6  SGN d5702      65.609  38.220  39.067  0.00  0.00     0.227 C 
BRANCH  25  26
ATOM     26  O6  SGN d5702      66.478  38.960  38.223  0.00  0.00    -0.254 OA
BRANCH  26  27
ATOM     27  S2  SGN d5702      67.080  38.206  36.786  0.00  0.00     0.251 S 
ATOM     28  O4S SGN d5702      66.884  36.793  36.820  0.00  0.00    -0.572 OA
ATOM     29  O5S SGN d5702      68.483  38.486  36.679  0.00  0.00    -0.572 OA
ATOM     30  O6S SGN d5702      66.309  38.767  35.715  0.00  0.00    -0.572 OA
ENDBRANCH  26  27
ENDBRANCH  25  26
ENDBRANCH   3  25
BRANCH   5  31
ATOM     31  O3  SGN d5702      60.993  38.602  37.354  0.00  0.00    -0.391 OA
ATOM     32  H   SGN d5702      60.987  37.644  37.506  0.00  0.00     0.210 HD
ENDBRANCH   5  31
BRANCH   2  33
ATOM     33  N   SGN d5702      61.352  41.380  37.361  0.00  0.00    -0.189 NA
ATOM     34  H   SGN d5702      61.596  42.244  37.846  0.00  0.00     0.143 HD
BRANCH  33  35
ATOM     35  S1  SGN d5702      60.967  41.757  35.679  0.00  0.00     0.183 S 
ATOM     36  O1S SGN d5702      60.522  40.542  35.027  0.00  0.00    -0.582 OA
ATOM     37  O2S SGN d5702      62.157  42.187  35.021  0.00  0.00    -0.582 OA
ATOM     38  O3S SGN d5702      59.951  42.791  35.745  0.00  0.00    -0.582 OA
ENDBRANCH  33  35
ENDBRANCH   2  33
BRANCH   6  39
ATOM     39  O1  SGN d5702      63.063  41.580  39.544  0.00  0.00    -0.369 OA
ATOM     40  H   SGN d5702      63.300  40.925  40.219  0.00  0.00     0.212 HD
ENDBRANCH   6  39
TORSDOF 14
ENDMDL
MODEL 28
REMARK VINA RESULT:      -3.8      3.076      6.095
REMARK  14 active torsions:
REMARK  status: ('A' for Active; 'I' for Inactive)
REMARK    1  A    between atoms: C5_1  and  C6_23 
REMARK    2  A    between atoms: S2_5  and  O6_7 
REMARK    3  A    between atoms: O1_6  and  C1_35 
REMARK    4  A    between atoms: O6_7  and  C6_21 
REMARK    5  A    between atoms: O2_9  and  C2_28 
REMARK    6  A    between atoms: O2_9  and  S_13 
REMARK    7  A    between atoms: C3_10  and  O3_20 
REMARK    8  A    between atoms: C1_11  and  O4_12 
REMARK    9  A    between atoms: O4_12  and  C4_19 
REMARK   10  A    between atoms: C2_15  and  N_29 
REMARK   11  A    between atoms: C5_17  and  C6_21 
REMARK   12  A    between atoms: C6_23  and  O61_33 
REMARK   13  A    between atoms: O3_24  and  C3_26 
REMARK   14  A    between atoms: S1_27  and  N_29 
ROOT
ATOM      1  O5  SGN d5702      64.363  41.320  37.156  0.00  0.00    -0.350 OA
ATOM      2  C2  SGN d5702      62.530  42.856  36.947  0.00  0.00     0.160 C 
ATOM      3  C5  SGN d5702      64.413  41.072  35.772  0.00  0.00     0.181 C 
ATOM      4  C4  SGN d5702      63.893  42.312  35.018  0.00  0.00     0.186 C 
ATOM      5  C3  SGN d5702      62.431  42.560  35.474  0.00  0.00     0.173 C 
ATOM      6  C1  SGN d5702      63.079  41.653  37.691  0.00  0.00     0.278 C 
ENDROOT
BRANCH   4   7
ATOM      7  O4  SGN d5702      63.987  41.995  33.602  0.00  0.00    -0.348 OA
BRANCH   7   8
ATOM      8  C1  IDU d1623      64.117  42.921  32.543  0.00  0.00     0.294 C 
ATOM      9  O5  IDU d1623      65.367  43.681  32.582  0.00  0.00    -0.343 OA
ATOM     10  C5  IDU d1623      65.455  44.736  31.560  0.00  0.00     0.224 C 
ATOM     11  C4  IDU d1623      65.377  44.086  30.169  0.00  0.00     0.077 C 
ATOM     12  C3  IDU d1623      64.075  43.280  30.047  0.00  0.00     0.156 C 
ATOM     13  C2  IDU d1623      64.067  42.231  31.170  0.00  0.00     0.228 C 
BRANCH  10  14
ATOM     14  C6  IDU d1623      66.755  45.488  31.656  0.00  0.00     0.170 C 
ATOM     15  O62 IDU d1623      66.758  46.693  31.360  0.00  0.00    -0.648 OA
BRANCH  14  16
ATOM     16  O61 IDU d1623      67.764  44.857  32.030  0.00  0.00    -0.774 OA
ENDBRANCH  14  16
ENDBRANCH  10  14
BRANCH  12  18
ATOM     18  O3  IDU d1623      62.978  44.140  30.185  0.00  0.00    -0.393 OA
ATOM     19  H   IDU d1623      63.241  44.920  30.699  0.00  0.00     0.210 HD
ENDBRANCH  12  18
BRANCH  13  20
ATOM     20  O2  IDU d1623      65.207  41.412  31.065  0.00  0.00    -0.244 OA
BRANCH  20  21
ATOM     21  S   IDU d1623      64.977  39.696  30.992  0.00  0.00     0.252 S 
ATOM     22  O3S IDU d1623      65.932  39.100  30.135  0.00  0.00    -0.572 OA
ATOM     23  O1S IDU d1623      63.622  39.479  30.582  0.00  0.00    -0.572 OA
ATOM     24  O2S IDU d1623      65.179  39.092  32.300  0.00  0.00    -0.572 OA
ENDBRANCH  20  21
ENDBRANCH  13  20
ENDBRANCH   7   8
ENDBRANCH   4   7
BRANCH   3  25
ATOM     25  C6  SGN d5702      65.837  40.758  35.430  0.00  0.00     0.227 C 
BRANCH  25  26
ATOM     26  O6  SGN d5702      66.571  41.394  36.465  0.00  0.00    -0.254 OA
BRANCH  26  27
ATOM     27  S2  SGN d5702      67.902  42.412  36.032  0.00  0.00     0.251 S 
ATOM     28  O4S SGN d5702      67.492  43.459  35.154  0.00  0.00    -0.572 OA
ATOM     29  O5S SGN d5702      68.894  41.608  35.376  0.00  0.00    -0.572 OA
ATOM     30  O6S SGN d5702      68.361  42.978  37.267  0.00  0.00    -0.572 OA
ENDBRANCH  26  27
ENDBRANCH  25  26
ENDBRANCH   3  25
BRANCH   5  31
ATOM     31  O3  SGN d5702      61.912  43.694  34.822  0.00  0.00    -0.391 OA
ATOM     32  H   SGN d5702      62.173  43.677  33.887  0.00  0.00     0.210 HD
ENDBRANCH   5  31
BRANCH   2  33
ATOM     33  N   SGN d5702      61.239  43.139  37.483  0.00  0.00    -0.189 NA
ATOM     34  H   SGN d5702      61.112  42.597  38.338  0.00  0.00     0.143 HD
BRANCH  33  35
ATOM     35  S1  SGN d5702      61.041  44.853  37.858  0.00  0.00     0.183 S 
ATOM     36  O1S SGN d5702      61.959  45.613  37.033  0.00  0.00    -0.582 OA
ATOM     37  O2S SGN d5702      61.406  45.071  39.220  0.00  0.00    -0.582 OA
ATOM     38  O3S SGN d5702      59.644  45.140  37.596  0.00  0.00    -0.582 OA
ENDBRANCH  33  35
ENDBRANCH   2  33
BRANCH   6  39
ATOM     39  O1  SGN d5702      62.218  40.541  37.635  0.00  0.00    -0.369 OA
ATOM     40  H   SGN d5702      61.701  40.574  36.815  0.00  0.00     0.212 HD
ENDBRANCH   6  39
TORSDOF 14
ENDMDL
MODEL 29
REMARK VINA RESULT:      -3.8      2.475      6.442
REMARK  14 active torsions:
REMARK  status: ('A' for Active; 'I' for Inactive)
REMARK    1  A    between atoms: C5_1  and  C6_23 
REMARK    2  A    between atoms: S2_5  and  O6_7 
REMARK    3  A    between atoms: O1_6  and  C1_35 
REMARK    4  A    between atoms: O6_7  and  C6_21 
REMARK    5  A    between atoms: O2_9  and  C2_28 
REMARK    6  A    between atoms: O2_9  and  S_13 
REMARK    7  A    between atoms: C3_10  and  O3_20 
REMARK    8  A    between atoms: C1_11  and  O4_12 
REMARK    9  A    between atoms: O4_12  and  C4_19 
REMARK   10  A    between atoms: C2_15  and  N_29 
REMARK   11  A    between atoms: C5_17  and  C6_21 
REMARK   12  A    between atoms: C6_23  and  O61_33 
REMARK   13  A    between atoms: O3_24  and  C3_26 
REMARK   14  A    between atoms: S1_27  and  N_29 
ROOT
ATOM      1  O5  SGN d5702      62.835  40.045  38.247  0.00  0.00    -0.350 OA
ATOM      2  C2  SGN d5702      61.709  41.485  36.691  0.00  0.00     0.160 C 
ATOM      3  C5  SGN d5702      63.575  39.404  37.236  0.00  0.00     0.181 C 
ATOM      4  C4  SGN d5702      63.773  40.381  36.060  0.00  0.00     0.186 C 
ATOM      5  C3  SGN d5702      62.366  40.776  35.536  0.00  0.00     0.173 C 
ATOM      6  C1  SGN d5702      61.548  40.540  37.867  0.00  0.00     0.278 C 
ENDROOT
BRANCH   4   7
ATOM      7  O4  SGN d5702      64.554  39.665  35.064  0.00  0.00    -0.348 OA
BRANCH   7   8
ATOM      8  C1  IDU d1623      65.579  40.206  34.256  0.00  0.00     0.294 C 
ATOM      9  O5  IDU d1623      66.778  40.582  35.007  0.00  0.00    -0.343 OA
ATOM     10  C5  IDU d1623      67.799  41.263  34.196  0.00  0.00     0.224 C 
ATOM     11  C4  IDU d1623      68.259  40.314  33.077  0.00  0.00     0.077 C 
ATOM     12  C3  IDU d1623      67.048  39.888  32.232  0.00  0.00     0.156 C 
ATOM     13  C2  IDU d1623      66.034  39.217  33.171  0.00  0.00     0.228 C 
BRANCH  10  14
ATOM     14  C6  IDU d1623      69.001  41.633  35.023  0.00  0.00     0.170 C 
ATOM     15  O62 IDU d1623      68.938  41.472  36.251  0.00  0.00    -0.648 OA
BRANCH  14  16
ATOM     16  O61 IDU d1623      69.999  42.086  34.426  0.00  0.00    -0.774 OA
ENDBRANCH  14  16
ENDBRANCH  10  14
BRANCH  12  18
ATOM     18  O3  IDU d1623      66.476  41.017  31.633  0.00  0.00    -0.393 OA
ATOM     19  H   IDU d1623      65.593  40.793  31.300  0.00  0.00     0.210 HD
ENDBRANCH  12  18
BRANCH  13  20
ATOM     20  O2  IDU d1623      66.637  38.122  33.820  0.00  0.00    -0.244 OA
BRANCH  20  21
ATOM     21  S   IDU d1623      66.345  36.536  33.188  0.00  0.00     0.252 S 
ATOM     22  O3S IDU d1623      65.760  35.705  34.173  0.00  0.00    -0.572 OA
ATOM     23  O1S IDU d1623      67.599  36.050  32.698  0.00  0.00    -0.572 OA
ATOM     24  O2S IDU d1623      65.393  36.584  32.089  0.00  0.00    -0.572 OA
ENDBRANCH  20  21
ENDBRANCH  13  20
ENDBRANCH   7   8
ENDBRANCH   4   7
BRANCH   3  25
ATOM     25  C6  SGN d5702      64.876  38.980  37.843  0.00  0.00     0.227 C 
BRANCH  25  26
ATOM     26  O6  SGN d5702      64.886  37.573  37.648  0.00  0.00    -0.254 OA
BRANCH  26  27
ATOM     27  S2  SGN d5702      64.186  36.563  38.866  0.00  0.00     0.251 S 
ATOM     28  O4S SGN d5702      64.980  35.400  39.096  0.00  0.00    -0.572 OA
ATOM     29  O5S SGN d5702      62.879  36.162  38.427  0.00  0.00    -0.572 OA
ATOM     30  O6S SGN d5702      64.162  37.365  40.054  0.00  0.00    -0.572 OA
ENDBRANCH  26  27
ENDBRANCH  25  26
ENDBRANCH   3  25
BRANCH   5  31
ATOM     31  O3  SGN d5702      62.491  41.681  34.466  0.00  0.00    -0.391 OA
ATOM     32  H   SGN d5702      63.042  42.431  34.739  0.00  0.00     0.210 HD
ENDBRANCH   5  31
BRANCH   2  33
ATOM     33  N   SGN d5702      60.407  41.934  36.320  0.00  0.00    -0.189 NA
ATOM     34  H   SGN d5702      59.742  41.646  37.039  0.00  0.00     0.143 HD
BRANCH  33  35
ATOM     35  S1  SGN d5702      60.338  43.691  36.149  0.00  0.00     0.183 S 
ATOM     36  O1S SGN d5702      59.488  44.221  37.196  0.00  0.00    -0.582 OA
ATOM     37  O2S SGN d5702      59.727  44.006  34.899  0.00  0.00    -0.582 OA
ATOM     38  O3S SGN d5702      61.716  44.135  36.232  0.00  0.00    -0.582 OA
ENDBRANCH  33  35
ENDBRANCH   2  33
BRANCH   6  39
ATOM     39  O1  SGN d5702      60.670  39.475  37.591  0.00  0.00    -0.369 OA
ATOM     40  H   SGN d5702      59.884  39.814  37.134  0.00  0.00     0.212 HD
ENDBRANCH   6  39
TORSDOF 14
ENDMDL
MODEL 30
REMARK VINA RESULT:      -3.8      3.311      5.814
REMARK  14 active torsions:
REMARK  status: ('A' for Active; 'I' for Inactive)
REMARK    1  A    between atoms: C5_1  and  C6_23 
REMARK    2  A    between atoms: S2_5  and  O6_7 
REMARK    3  A    between atoms: O1_6  and  C1_35 
REMARK    4  A    between atoms: O6_7  and  C6_21 
REMARK    5  A    between atoms: O2_9  and  C2_28 
REMARK    6  A    between atoms: O2_9  and  S_13 
REMARK    7  A    between atoms: C3_10  and  O3_20 
REMARK    8  A    between atoms: C1_11  and  O4_12 
REMARK    9  A    between atoms: O4_12  and  C4_19 
REMARK   10  A    between atoms: C2_15  and  N_29 
REMARK   11  A    between atoms: C5_17  and  C6_21 
REMARK   12  A    between atoms: C6_23  and  O61_33 
REMARK   13  A    between atoms: O3_24  and  C3_26 
REMARK   14  A    between atoms: S1_27  and  N_29 
ROOT
ATOM      1  O5  SGN d5702      61.906  40.382  36.550  0.00  0.00    -0.350 OA
ATOM      2  C2  SGN d5702      63.032  39.407  38.432  0.00  0.00     0.160 C 
ATOM      3  C5  SGN d5702      61.900  41.668  37.121  0.00  0.00     0.181 C 
ATOM      4  C4  SGN d5702      63.107  41.803  38.071  0.00  0.00     0.186 C 
ATOM      5  C3  SGN d5702      62.963  40.717  39.171  0.00  0.00     0.173 C 
ATOM      6  C1  SGN d5702      61.869  39.284  37.466  0.00  0.00     0.278 C 
ENDROOT
BRANCH   4   7
ATOM      7  O4  SGN d5702      63.050  43.151  38.612  0.00  0.00    -0.348 OA
BRANCH   7   8
ATOM      8  C1  IDU d1623      64.124  44.065  38.699  0.00  0.00     0.294 C 
ATOM      9  O5  IDU d1623      64.547  44.595  37.402  0.00  0.00    -0.343 OA
ATOM     10  C5  IDU d1623      65.745  45.447  37.469  0.00  0.00     0.224 C 
ATOM     11  C4  IDU d1623      65.441  46.660  38.363  0.00  0.00     0.077 C 
ATOM     12  C3  IDU d1623      65.004  46.179  39.755  0.00  0.00     0.156 C 
ATOM     13  C2  IDU d1623      63.772  45.279  39.574  0.00  0.00     0.228 C 
BRANCH  10  14
ATOM     14  C6  IDU d1623      66.136  45.952  36.106  0.00  0.00     0.170 C 
ATOM     15  O62 IDU d1623      66.632  47.087  36.023  0.00  0.00    -0.648 OA
BRANCH  14  16
ATOM     16  O61 IDU d1623      65.940  45.201  35.130  0.00  0.00    -0.774 OA
ENDBRANCH  14  16
ENDBRANCH  10  14
BRANCH  12  18
ATOM     18  O3  IDU d1623      66.046  45.454  40.348  0.00  0.00    -0.393 OA
ATOM     19  H   IDU d1623      66.495  46.011  41.002  0.00  0.00     0.210 HD
ENDBRANCH  12  18
BRANCH  13  20
ATOM     20  O2  IDU d1623      62.752  45.994  38.918  0.00  0.00    -0.244 OA
BRANCH  20  21
ATOM     21  S   IDU d1623      61.135  45.856  39.526  0.00  0.00     0.252 S 
ATOM     22  O3S IDU d1623      60.628  47.125  39.892  0.00  0.00    -0.572 OA
ATOM     23  O1S IDU d1623      61.181  44.921  40.610  0.00  0.00    -0.572 OA
ATOM     24  O2S IDU d1623      60.239  45.347  38.499  0.00  0.00    -0.572 OA
ENDBRANCH  20  21
ENDBRANCH  13  20
ENDBRANCH   7   8
ENDBRANCH   4   7
BRANCH   3  25
ATOM     25  C6  SGN d5702      61.954  42.653  35.995  0.00  0.00     0.227 C 
BRANCH  25  26
ATOM     26  O6  SGN d5702      62.132  41.832  34.850  0.00  0.00    -0.254 OA
BRANCH  26  27
ATOM     27  S2  SGN d5702      63.633  41.919  33.993  0.00  0.00     0.251 S 
ATOM     28  O4S SGN d5702      63.624  42.976  33.035  0.00  0.00    -0.572 OA
ATOM     29  O5S SGN d5702      63.842  40.671  33.316  0.00  0.00    -0.572 OA
ATOM     30  O6S SGN d5702      64.623  42.192  34.993  0.00  0.00    -0.572 OA
ENDBRANCH  26  27
ENDBRANCH  25  26
ENDBRANCH   3  25
BRANCH   5  31
ATOM     31  O3  SGN d5702      64.051  40.790  40.060  0.00  0.00    -0.391 OA
ATOM     32  H   SGN d5702      64.843  41.077  39.579  0.00  0.00     0.210 HD
ENDBRANCH   5  31
BRANCH   2  33
ATOM     33  N   SGN d5702      62.945  38.318  39.348  0.00  0.00    -0.189 NA
ATOM     34  H   SGN d5702      62.171  37.714  39.070  0.00  0.00     0.143 HD
BRANCH  33  35
ATOM     35  S1  SGN d5702      64.430  37.362  39.381  0.00  0.00     0.183 S 
ATOM     36  O1S SGN d5702      64.887  37.176  38.018  0.00  0.00    -0.582 OA
ATOM     37  O2S SGN d5702      64.134  36.072  39.914  0.00  0.00    -0.582 OA
ATOM     38  O3S SGN d5702      65.350  38.118  40.209  0.00  0.00    -0.582 OA
ENDBRANCH  33  35
ENDBRANCH   2  33
BRANCH   6  39
ATOM     39  O1  SGN d5702      60.623  39.230  38.120  0.00  0.00    -0.369 OA
ATOM     40  H   SGN d5702      59.914  39.176  37.460  0.00  0.00     0.212 HD
ENDBRANCH   6  39
TORSDOF 14
ENDMDL
MODEL 31
REMARK VINA RESULT:      -3.8      2.495      6.141
REMARK  14 active torsions:
REMARK  status: ('A' for Active; 'I' for Inactive)
REMARK    1  A    between atoms: C5_1  and  C6_23 
REMARK    2  A    between atoms: S2_5  and  O6_7 
REMARK    3  A    between atoms: O1_6  and  C1_35 
REMARK    4  A    between atoms: O6_7  and  C6_21 
REMARK    5  A    between atoms: O2_9  and  C2_28 
REMARK    6  A    between atoms: O2_9  and  S_13 
REMARK    7  A    between atoms: C3_10  and  O3_20 
REMARK    8  A    between atoms: C1_11  and  O4_12 
REMARK    9  A    between atoms: O4_12  and  C4_19 
REMARK   10  A    between atoms: C2_15  and  N_29 
REMARK   11  A    between atoms: C5_17  and  C6_21 
REMARK   12  A    between atoms: C6_23  and  O61_33 
REMARK   13  A    between atoms: O3_24  and  C3_26 
REMARK   14  A    between atoms: S1_27  and  N_29 
ROOT
ATOM      1  O5  SGN d5702      64.349  41.148  37.018  0.00  0.00    -0.350 OA
ATOM      2  C2  SGN d5702      62.668  42.850  36.823  0.00  0.00     0.160 C 
ATOM      3  C5  SGN d5702      64.369  40.900  35.634  0.00  0.00     0.181 C 
ATOM      4  C4  SGN d5702      63.965  42.186  34.886  0.00  0.00     0.186 C 
ATOM      5  C3  SGN d5702      62.534  42.570  35.349  0.00  0.00     0.173 C 
ATOM      6  C1  SGN d5702      63.104  41.598  37.561  0.00  0.00     0.278 C 
ENDROOT
BRANCH   4   7
ATOM      7  O4  SGN d5702      64.021  41.867  33.468  0.00  0.00    -0.348 OA
BRANCH   7   8
ATOM      8  C1  IDU d1623      64.155  42.789  32.406  0.00  0.00     0.294 C 
ATOM      9  O5  IDU d1623      65.427  43.514  32.420  0.00  0.00    -0.343 OA
ATOM     10  C5  IDU d1623      65.523  44.566  31.395  0.00  0.00     0.224 C 
ATOM     11  C4  IDU d1623      65.399  43.919  30.006  0.00  0.00     0.077 C 
ATOM     12  C3  IDU d1623      64.072  43.149  29.912  0.00  0.00     0.156 C 
ATOM     13  C2  IDU d1623      64.058  42.100  31.035  0.00  0.00     0.228 C 
BRANCH  10  14
ATOM     14  C6  IDU d1623      66.845  45.282  31.465  0.00  0.00     0.170 C 
ATOM     15  O62 IDU d1623      66.991  46.159  32.329  0.00  0.00    -0.648 OA
BRANCH  14  16
ATOM     16  O61 IDU d1623      67.727  44.953  30.645  0.00  0.00    -0.774 OA
ENDBRANCH  14  16
ENDBRANCH  10  14
BRANCH  12  18
ATOM     18  O3  IDU d1623      63.003  44.039  30.072  0.00  0.00    -0.393 OA
ATOM     19  H   IDU d1623      62.936  44.608  29.289  0.00  0.00     0.210 HD
ENDBRANCH  12  18
BRANCH  13  20
ATOM     20  O2  IDU d1623      65.173  41.250  30.907  0.00  0.00    -0.244 OA
BRANCH  20  21
ATOM     21  S   IDU d1623      64.890  39.545  30.783  0.00  0.00     0.252 S 
ATOM     22  O3S IDU d1623      65.803  38.951  29.881  0.00  0.00    -0.572 OA
ATOM     23  O1S IDU d1623      63.519  39.381  30.404  0.00  0.00    -0.572 OA
ATOM     24  O2S IDU d1623      65.109  38.890  32.064  0.00  0.00    -0.572 OA
ENDBRANCH  20  21
ENDBRANCH  13  20
ENDBRANCH   7   8
ENDBRANCH   4   7
BRANCH   3  25
ATOM     25  C6  SGN d5702      65.754  40.454  35.284  0.00  0.00     0.227 C 
BRANCH  25  26
ATOM     26  O6  SGN d5702      65.623  39.047  35.153  0.00  0.00    -0.254 OA
BRANCH  26  27
ATOM     27  S2  SGN d5702      66.045  38.045  36.500  0.00  0.00     0.251 S 
ATOM     28  O4S SGN d5702      66.816  38.765  37.461  0.00  0.00    -0.572 OA
ATOM     29  O5S SGN d5702      66.813  36.933  36.017  0.00  0.00    -0.572 OA
ATOM     30  O6S SGN d5702      64.796  37.658  37.088  0.00  0.00    -0.572 OA
ENDBRANCH  26  27
ENDBRANCH  25  26
ENDBRANCH   3  25
BRANCH   5  31
ATOM     31  O3  SGN d5702      62.122  43.750  34.703  0.00  0.00    -0.391 OA
ATOM     32  H   SGN d5702      62.081  44.474  35.347  0.00  0.00     0.210 HD
ENDBRANCH   5  31
BRANCH   2  33
ATOM     33  N   SGN d5702      61.412  43.252  37.366  0.00  0.00    -0.189 NA
ATOM     34  H   SGN d5702      61.180  42.640  38.148  0.00  0.00     0.143 HD
BRANCH  33  35
ATOM     35  S1  SGN d5702      61.444  44.923  37.939  0.00  0.00     0.183 S 
ATOM     36  O1S SGN d5702      62.219  45.714  37.004  0.00  0.00    -0.582 OA
ATOM     37  O2S SGN d5702      62.116  44.964  39.197  0.00  0.00    -0.582 OA
ATOM     38  O3S SGN d5702      60.052  45.320  38.029  0.00  0.00    -0.582 OA
ENDBRANCH  33  35
ENDBRANCH   2  33
BRANCH   6  39
ATOM     39  O1  SGN d5702      62.141  40.573  37.506  0.00  0.00    -0.369 OA
ATOM     40  H   SGN d5702      61.331  40.867  37.950  0.00  0.00     0.212 HD
ENDBRANCH   6  39
TORSDOF 14
ENDMDL
MODEL 32
REMARK VINA RESULT:      -3.8      3.738      5.425
REMARK  14 active torsions:
REMARK  status: ('A' for Active; 'I' for Inactive)
REMARK    1  A    between atoms: C5_1  and  C6_23 
REMARK    2  A    between atoms: S2_5  and  O6_7 
REMARK    3  A    between atoms: O1_6  and  C1_35 
REMARK    4  A    between atoms: O6_7  and  C6_21 
REMARK    5  A    between atoms: O2_9  and  C2_28 
REMARK    6  A    between atoms: O2_9  and  S_13 
REMARK    7  A    between atoms: C3_10  and  O3_20 
REMARK    8  A    between atoms: C1_11  and  O4_12 
REMARK    9  A    between atoms: O4_12  and  C4_19 
REMARK   10  A    between atoms: C2_15  and  N_29 
REMARK   11  A    between atoms: C5_17  and  C6_21 
REMARK   12  A    between atoms: C6_23  and  O61_33 
REMARK   13  A    between atoms: O3_24  and  C3_26 
REMARK   14  A    between atoms: S1_27  and  N_29 
ROOT
ATOM      1  O5  SGN d5702      61.280  44.413  38.240  0.00  0.00    -0.350 OA
ATOM      2  C2  SGN d5702      63.087  45.046  39.687  0.00  0.00     0.160 C 
ATOM      3  C5  SGN d5702      62.041  44.614  37.074  0.00  0.00     0.181 C 
ATOM      4  C4  SGN d5702      63.531  44.383  37.398  0.00  0.00     0.186 C 
ATOM      5  C3  SGN d5702      63.936  45.403  38.496  0.00  0.00     0.173 C 
ATOM      6  C1  SGN d5702      61.617  45.233  39.362  0.00  0.00     0.278 C 
ENDROOT
BRANCH   4   7
ATOM      7  O4  SGN d5702      64.254  44.590  36.154  0.00  0.00    -0.348 OA
BRANCH   7   8
ATOM      8  C1  IDU d1623      65.491  44.009  35.798  0.00  0.00     0.294 C 
ATOM      9  O5  IDU d1623      65.464  42.545  35.773  0.00  0.00    -0.343 OA
ATOM     10  C5  IDU d1623      66.778  41.928  35.529  0.00  0.00     0.224 C 
ATOM     11  C4  IDU d1623      67.291  42.383  34.154  0.00  0.00     0.077 C 
ATOM     12  C3  IDU d1623      67.363  43.918  34.111  0.00  0.00     0.156 C 
ATOM     13  C2  IDU d1623      65.956  44.461  34.404  0.00  0.00     0.228 C 
BRANCH  10  14
ATOM     14  C6  IDU d1623      66.688  40.426  35.525  0.00  0.00     0.170 C 
ATOM     15  O62 IDU d1623      66.142  39.870  36.490  0.00  0.00    -0.648 OA
BRANCH  14  16
ATOM     16  O61 IDU d1623      67.170  39.819  34.548  0.00  0.00    -0.774 OA
ENDBRANCH  14  16
ENDBRANCH  10  14
BRANCH  12  18
ATOM     18  O3  IDU d1623      68.266  44.371  35.081  0.00  0.00    -0.393 OA
ATOM     19  H   IDU d1623      68.940  44.927  34.661  0.00  0.00     0.210 HD
ENDBRANCH  12  18
BRANCH  13  20
ATOM     20  O2  IDU d1623      65.042  43.949  33.464  0.00  0.00    -0.244 OA
BRANCH  20  21
ATOM     21  S   IDU d1623      63.904  45.043  32.751  0.00  0.00     0.252 S 
ATOM     22  O3S IDU d1623      62.579  44.595  32.964  0.00  0.00    -0.572 OA
ATOM     23  O1S IDU d1623      64.255  45.159  31.367  0.00  0.00    -0.572 OA
ATOM     24  O2S IDU d1623      63.988  46.355  33.374  0.00  0.00    -0.572 OA
ENDBRANCH  20  21
ENDBRANCH  13  20
ENDBRANCH   7   8
ENDBRANCH   4   7
BRANCH   3  25
ATOM     25  C6  SGN d5702      61.532  43.656  36.043  0.00  0.00     0.227 C 
BRANCH  25  26
ATOM     26  O6  SGN d5702      61.909  42.387  36.558  0.00  0.00    -0.254 OA
BRANCH  26  27
ATOM     27  S2  SGN d5702      62.101  41.068  35.454  0.00  0.00     0.251 S 
ATOM     28  O4S SGN d5702      62.851  41.458  34.304  0.00  0.00    -0.572 OA
ATOM     29  O5S SGN d5702      60.799  40.628  35.041  0.00  0.00    -0.572 OA
ATOM     30  O6S SGN d5702      62.831  40.071  36.182  0.00  0.00    -0.572 OA
ENDBRANCH  26  27
ENDBRANCH  25  26
ENDBRANCH   3  25
BRANCH   5  31
ATOM     31  O3  SGN d5702      65.289  45.224  38.838  0.00  0.00    -0.391 OA
ATOM     32  H   SGN d5702      65.845  45.403  38.064  0.00  0.00     0.210 HD
ENDBRANCH   5  31
BRANCH   2  33
ATOM     33  N   SGN d5702      63.395  45.900  40.787  0.00  0.00    -0.189 NA
ATOM     34  H   SGN d5702      62.566  46.447  41.022  0.00  0.00     0.143 HD
BRANCH  33  35
ATOM     35  S1  SGN d5702      63.898  44.986  42.212  0.00  0.00     0.183 S 
ATOM     36  O1S SGN d5702      65.214  45.444  42.610  0.00  0.00    -0.582 OA
ATOM     37  O2S SGN d5702      64.011  43.609  41.859  0.00  0.00    -0.582 OA
ATOM     38  O3S SGN d5702      62.868  45.232  43.204  0.00  0.00    -0.582 OA
ENDBRANCH  33  35
ENDBRANCH   2  33
BRANCH   6  39
ATOM     39  O1  SGN d5702      61.284  46.577  39.110  0.00  0.00    -0.369 OA
ATOM     40  H   SGN d5702      60.373  46.744  39.400  0.00  0.00     0.212 HD
ENDBRANCH   6  39
TORSDOF 14
ENDMDL
MODEL 33
REMARK VINA RESULT:      -3.8      2.474      6.395
REMARK  14 active torsions:
REMARK  status: ('A' for Active; 'I' for Inactive)
REMARK    1  A    between atoms: C5_1  and  C6_23 
REMARK    2  A    between atoms: S2_5  and  O6_7 
REMARK    3  A    between atoms: O1_6  and  C1_35 
REMARK    4  A    between atoms: O6_7  and  C6_21 
REMARK    5  A    between atoms: O2_9  and  C2_28 
REMARK    6  A    between atoms: O2_9  and  S_13 
REMARK    7  A    between atoms: C3_10  and  O3_20 
REMARK    8  A    between atoms: C1_11  and  O4_12 
REMARK    9  A    between atoms: O4_12  and  C4_19 
REMARK   10  A    between atoms: C2_15  and  N_29 
REMARK   11  A    between atoms: C5_17  and  C6_21 
REMARK   12  A    between atoms: C6_23  and  O61_33 
REMARK   13  A    between atoms: O3_24  and  C3_26 
REMARK   14  A    between atoms: S1_27  and  N_29 
ROOT
ATOM      1  O5  SGN d5702      62.797  40.038  38.098  0.00  0.00    -0.350 OA
ATOM      2  C2  SGN d5702      61.672  41.559  36.620  0.00  0.00     0.160 C 
ATOM      3  C5  SGN d5702      63.570  39.482  37.062  0.00  0.00     0.181 C 
ATOM      4  C4  SGN d5702      63.770  40.541  35.958  0.00  0.00     0.186 C 
ATOM      5  C3  SGN d5702      62.365  40.943  35.434  0.00  0.00     0.173 C 
ATOM      6  C1  SGN d5702      61.508  40.533  37.726  0.00  0.00     0.278 C 
ENDROOT
BRANCH   4   7
ATOM      7  O4  SGN d5702      64.585  39.910  34.933  0.00  0.00    -0.348 OA
BRANCH   7   8
ATOM      8  C1  IDU d1623      65.612  40.525  34.183  0.00  0.00     0.294 C 
ATOM      9  O5  IDU d1623      66.750  40.959  34.996  0.00  0.00    -0.343 OA
ATOM     10  C5  IDU d1623      67.765  41.714  34.244  0.00  0.00     0.224 C 
ATOM     11  C4  IDU d1623      68.333  40.814  33.135  0.00  0.00     0.077 C 
ATOM     12  C3  IDU d1623      67.191  40.332  32.227  0.00  0.00     0.156 C 
ATOM     13  C2  IDU d1623      66.176  39.585  33.106  0.00  0.00     0.228 C 
BRANCH  10  14
ATOM     14  C6  IDU d1623      68.902  42.140  35.133  0.00  0.00     0.170 C 
ATOM     15  O62 IDU d1623      69.950  42.531  34.596  0.00  0.00    -0.648 OA
BRANCH  14  16
ATOM     16  O61 IDU d1623      68.729  42.077  36.367  0.00  0.00    -0.774 OA
ENDBRANCH  14  16
ENDBRANCH  10  14
BRANCH  12  18
ATOM     18  O3  IDU d1623      66.580  41.435  31.618  0.00  0.00    -0.393 OA
ATOM     19  H   IDU d1623      65.895  41.790  32.206  0.00  0.00     0.210 HD
ENDBRANCH  12  18
BRANCH  13  20
ATOM     20  O2  IDU d1623      66.813  38.516  33.766  0.00  0.00    -0.244 OA
BRANCH  20  21
ATOM     21  S   IDU d1623      66.486  36.906  33.219  0.00  0.00     0.252 S 
ATOM     22  O3S IDU d1623      67.684  36.253  32.844  0.00  0.00    -0.572 OA
ATOM     23  O1S IDU d1623      65.536  37.017  32.153  0.00  0.00    -0.572 OA
ATOM     24  O2S IDU d1623      65.910  36.103  34.287  0.00  0.00    -0.572 OA
ENDBRANCH  20  21
ENDBRANCH  13  20
ENDBRANCH   7   8
ENDBRANCH   4   7
BRANCH   3  25
ATOM     25  C6  SGN d5702      64.868  39.043  37.665  0.00  0.00     0.227 C 
BRANCH  25  26
ATOM     26  O6  SGN d5702      64.826  37.630  37.541  0.00  0.00    -0.254 OA
BRANCH  26  27
ATOM     27  S2  SGN d5702      64.040  36.711  38.779  0.00  0.00     0.251 S 
ATOM     28  O4S SGN d5702      62.674  36.458  38.450  0.00  0.00    -0.572 OA
ATOM     29  O5S SGN d5702      64.099  37.456  40.004  0.00  0.00    -0.572 OA
ATOM     30  O6S SGN d5702      64.753  35.469  38.837  0.00  0.00    -0.572 OA
ENDBRANCH  26  27
ENDBRANCH  25  26
ENDBRANCH   3  25
BRANCH   5  31
ATOM     31  O3  SGN d5702      62.492  41.921  34.430  0.00  0.00    -0.391 OA
ATOM     32  H   SGN d5702      62.803  41.505  33.611  0.00  0.00     0.210 HD
ENDBRANCH   5  31
BRANCH   2  33
ATOM     33  N   SGN d5702      60.368  42.006  36.254  0.00  0.00    -0.189 NA
ATOM     34  H   SGN d5702      59.701  41.690  36.958  0.00  0.00     0.143 HD
BRANCH  33  35
ATOM     35  S1  SGN d5702      60.283  43.767  36.137  0.00  0.00     0.183 S 
ATOM     36  O1S SGN d5702      61.627  44.299  36.236  0.00  0.00    -0.582 OA
ATOM     37  O2S SGN d5702      59.540  44.265  37.248  0.00  0.00    -0.582 OA
ATOM     38  O3S SGN d5702      59.641  44.032  34.863  0.00  0.00    -0.582 OA
ENDBRANCH  33  35
ENDBRANCH   2  33
BRANCH   6  39
ATOM     39  O1  SGN d5702      60.658  39.472  37.361  0.00  0.00    -0.369 OA
ATOM     40  H   SGN d5702      61.188  38.742  37.005  0.00  0.00     0.212 HD
ENDBRANCH   6  39
TORSDOF 14
ENDMDL
MODEL 34
REMARK VINA RESULT:      -3.8      1.184      1.557
REMARK  14 active torsions:
REMARK  status: ('A' for Active; 'I' for Inactive)
REMARK    1  A    between atoms: C5_1  and  C6_23 
REMARK    2  A    between atoms: S2_5  and  O6_7 
REMARK    3  A    between atoms: O1_6  and  C1_35 
REMARK    4  A    between atoms: O6_7  and  C6_21 
REMARK    5  A    between atoms: O2_9  and  C2_28 
REMARK    6  A    between atoms: O2_9  and  S_13 
REMARK    7  A    between atoms: C3_10  and  O3_20 
REMARK    8  A    between atoms: C1_11  and  O4_12 
REMARK    9  A    between atoms: O4_12  and  C4_19 
REMARK   10  A    between atoms: C2_15  and  N_29 
REMARK   11  A    between atoms: C5_17  and  C6_21 
REMARK   12  A    between atoms: C6_23  and  O61_33 
REMARK   13  A    between atoms: O3_24  and  C3_26 
REMARK   14  A    between atoms: S1_27  and  N_29 
ROOT
ATOM      1  O5  SGN d5702      61.123  39.630  37.331  0.00  0.00    -0.350 OA
ATOM      2  C2  SGN d5702      63.189  38.498  37.792  0.00  0.00     0.160 C 
ATOM      3  C5  SGN d5702      61.750  40.618  36.550  0.00  0.00     0.181 C 
ATOM      4  C4  SGN d5702      63.027  40.028  35.919  0.00  0.00     0.186 C 
ATOM      5  C3  SGN d5702      63.958  39.577  37.077  0.00  0.00     0.173 C 
ATOM      6  C1  SGN d5702      61.910  39.063  38.382  0.00  0.00     0.278 C 
ENDROOT
BRANCH   4   7
ATOM      7  O4  SGN d5702      63.613  41.091  35.118  0.00  0.00    -0.348 OA
BRANCH   7   8
ATOM      8  C1  IDU d1623      64.499  40.928  34.030  0.00  0.00     0.294 C 
ATOM      9  O5  IDU d1623      63.908  40.214  32.897  0.00  0.00    -0.343 OA
ATOM     10  C5  IDU d1623      64.860  39.927  31.812  0.00  0.00     0.224 C 
ATOM     11  C4  IDU d1623      65.400  41.257  31.262  0.00  0.00     0.077 C 
ATOM     12  C3  IDU d1623      66.054  42.058  32.399  0.00  0.00     0.156 C 
ATOM     13  C2  IDU d1623      64.992  42.279  33.487  0.00  0.00     0.228 C 
BRANCH  10  14
ATOM     14  C6  IDU d1623      64.198  39.185  30.682  0.00  0.00     0.170 C 
ATOM     15  O62 IDU d1623      64.655  38.077  30.363  0.00  0.00    -0.648 OA
BRANCH  14  16
ATOM     16  O61 IDU d1623      63.222  39.727  30.125  0.00  0.00    -0.774 OA
ENDBRANCH  14  16
ENDBRANCH  10  14
BRANCH  12  18
ATOM     18  O3  IDU d1623      67.134  41.335  32.919  0.00  0.00    -0.393 OA
ATOM     19  H   IDU d1623      66.819  40.480  33.254  0.00  0.00     0.210 HD
ENDBRANCH  12  18
BRANCH  13  20
ATOM     20  O2  IDU d1623      63.881  42.949  32.941  0.00  0.00    -0.244 OA
BRANCH  20  21
ATOM     21  S   IDU d1623      64.095  44.581  32.401  0.00  0.00     0.252 S 
ATOM     22  O3S IDU d1623      63.985  44.660  30.993  0.00  0.00    -0.572 OA
ATOM     23  O1S IDU d1623      65.362  45.019  32.904  0.00  0.00    -0.572 OA
ATOM     24  O2S IDU d1623      63.049  45.442  32.933  0.00  0.00    -0.572 OA
ENDBRANCH  20  21
ENDBRANCH  13  20
ENDBRANCH   7   8
ENDBRANCH   4   7
BRANCH   3  25
ATOM     25  C6  SGN d5702      60.760  41.059  35.517  0.00  0.00     0.227 C 
BRANCH  25  26
ATOM     26  O6  SGN d5702      59.986  42.034  36.198  0.00  0.00    -0.254 OA
BRANCH  26  27
ATOM     27  S2  SGN d5702      60.599  43.649  36.311  0.00  0.00     0.251 S 
ATOM     28  O4S SGN d5702      61.411  43.816  37.473  0.00  0.00    -0.572 OA
ATOM     29  O5S SGN d5702      59.487  44.554  36.379  0.00  0.00    -0.572 OA
ATOM     30  O6S SGN d5702      61.404  43.829  35.139  0.00  0.00    -0.572 OA
ENDBRANCH  26  27
ENDBRANCH  25  26
ENDBRANCH   3  25
BRANCH   5  31
ATOM     31  O3  SGN d5702      65.137  39.017  36.552  0.00  0.00    -0.391 OA
ATOM     32  H   SGN d5702      65.612  39.687  36.036  0.00  0.00     0.210 HD
ENDBRANCH   5  31
BRANCH   2  33
ATOM     33  N   SGN d5702      63.962  37.972  38.869  0.00  0.00    -0.189 NA
ATOM     34  H   SGN d5702      64.525  37.195  38.522  0.00  0.00     0.143 HD
BRANCH  33  35
ATOM     35  S1  SGN d5702      65.036  39.188  39.567  0.00  0.00     0.183 S 
ATOM     36  O1S SGN d5702      64.715  39.331  40.973  0.00  0.00    -0.582 OA
ATOM     37  O2S SGN d5702      64.781  40.442  38.938  0.00  0.00    -0.582 OA
ATOM     38  O3S SGN d5702      66.378  38.695  39.321  0.00  0.00    -0.582 OA
ENDBRANCH  33  35
ENDBRANCH   2  33
BRANCH   6  39
ATOM     39  O1  SGN d5702      62.153  40.018  39.387  0.00  0.00    -0.369 OA
ATOM     40  H   SGN d5702      61.965  39.628  40.255  0.00  0.00     0.212 HD
ENDBRANCH   6  39
TORSDOF 14
ENDMDL
MODEL 35
REMARK VINA RESULT:      -3.8      3.136      7.258
REMARK  14 active torsions:
REMARK  status: ('A' for Active; 'I' for Inactive)
REMARK    1  A    between atoms: C5_1  and  C6_23 
REMARK    2  A    between atoms: S2_5  and  O6_7 
REMARK    3  A    between atoms: O1_6  and  C1_35 
REMARK    4  A    between atoms: O6_7  and  C6_21 
REMARK    5  A    between atoms: O2_9  and  C2_28 
REMARK    6  A    between atoms: O2_9  and  S_13 
REMARK    7  A    between atoms: C3_10  and  O3_20 
REMARK    8  A    between atoms: C1_11  and  O4_12 
REMARK    9  A    between atoms: O4_12  and  C4_19 
REMARK   10  A    between atoms: C2_15  and  N_29 
REMARK   11  A    between atoms: C5_17  and  C6_21 
REMARK   12  A    between atoms: C6_23  and  O61_33 
REMARK   13  A    between atoms: O3_24  and  C3_26 
REMARK   14  A    between atoms: S1_27  and  N_29 
ROOT
ATOM      1  O5  SGN d5702      62.966  44.086  37.676  0.00  0.00    -0.350 OA
ATOM      2  C2  SGN d5702      63.127  43.749  35.304  0.00  0.00     0.160 C 
ATOM      3  C5  SGN d5702      62.999  42.707  37.952  0.00  0.00     0.181 C 
ATOM      4  C4  SGN d5702      63.783  41.988  36.836  0.00  0.00     0.186 C 
ATOM      5  C3  SGN d5702      63.047  42.257  35.496  0.00  0.00     0.173 C 
ATOM      6  C1  SGN d5702      62.391  44.465  36.422  0.00  0.00     0.278 C 
ENDROOT
BRANCH   4   7
ATOM      7  O4  SGN d5702      63.793  40.578  37.190  0.00  0.00    -0.348 OA
BRANCH   7   8
ATOM      8  C1  IDU d1623      64.869  39.679  37.020  0.00  0.00     0.294 C 
ATOM      9  O5  IDU d1623      66.032  39.997  37.852  0.00  0.00    -0.343 OA
ATOM     10  C5  IDU d1623      67.202  39.144  37.589  0.00  0.00     0.224 C 
ATOM     11  C4  IDU d1623      66.830  37.683  37.891  0.00  0.00     0.077 C 
ATOM     12  C3  IDU d1623      65.620  37.272  37.038  0.00  0.00     0.156 C 
ATOM     13  C2  IDU d1623      64.468  38.235  37.363  0.00  0.00     0.228 C 
BRANCH  10  14
ATOM     14  C6  IDU d1623      68.366  39.524  38.464  0.00  0.00     0.170 C 
ATOM     15  O62 IDU d1623      69.476  39.673  37.930  0.00  0.00    -0.648 OA
BRANCH  14  16
ATOM     16  O61 IDU d1623      68.151  39.668  39.685  0.00  0.00    -0.774 OA
ENDBRANCH  14  16
ENDBRANCH  10  14
BRANCH  12  18
ATOM     18  O3  IDU d1623      65.954  37.362  35.680  0.00  0.00    -0.393 OA
ATOM     19  H   IDU d1623      65.262  37.853  35.210  0.00  0.00     0.210 HD
ENDBRANCH  12  18
BRANCH  13  20
ATOM     20  O2  IDU d1623      64.182  38.189  38.741  0.00  0.00    -0.244 OA
BRANCH  20  21
ATOM     21  S   IDU d1623      62.526  38.039  39.227  0.00  0.00     0.252 S 
ATOM     22  O3S IDU d1623      61.667  38.114  38.106  0.00  0.00    -0.572 OA
ATOM     23  O1S IDU d1623      62.289  39.061  40.202  0.00  0.00    -0.572 OA
ATOM     24  O2S IDU d1623      62.281  36.739  39.834  0.00  0.00    -0.572 OA
ENDBRANCH  20  21
ENDBRANCH  13  20
ENDBRANCH   7   8
ENDBRANCH   4   7
BRANCH   3  25
ATOM     25  C6  SGN d5702      63.643  42.540  39.293  0.00  0.00     0.227 C 
BRANCH  25  26
ATOM     26  O6  SGN d5702      62.537  42.403  40.173  0.00  0.00    -0.254 OA
BRANCH  26  27
ATOM     27  S2  SGN d5702      62.166  43.709  41.247  0.00  0.00     0.251 S 
ATOM     28  O4S SGN d5702      61.378  43.266  42.351  0.00  0.00    -0.572 OA
ATOM     29  O5S SGN d5702      61.435  44.705  40.516  0.00  0.00    -0.572 OA
ATOM     30  O6S SGN d5702      63.434  44.177  41.725  0.00  0.00    -0.572 OA
ENDBRANCH  26  27
ENDBRANCH  25  26
ENDBRANCH   3  25
BRANCH   5  31
ATOM     31  O3  SGN d5702      63.734  41.631  34.439  0.00  0.00    -0.391 OA
ATOM     32  H   SGN d5702      63.112  41.094  33.923  0.00  0.00     0.210 HD
ENDBRANCH   5  31
BRANCH   2  33
ATOM     33  N   SGN d5702      62.509  44.123  34.075  0.00  0.00    -0.189 NA
ATOM     34  H   SGN d5702      61.845  44.877  34.256  0.00  0.00     0.143 HD
BRANCH  33  35
ATOM     35  S1  SGN d5702      63.690  44.678  32.884  0.00  0.00     0.183 S 
ATOM     36  O1S SGN d5702      65.005  44.232  33.299  0.00  0.00    -0.582 OA
ATOM     37  O2S SGN d5702      63.701  46.104  32.878  0.00  0.00    -0.582 OA
ATOM     38  O3S SGN d5702      63.252  44.111  31.623  0.00  0.00    -0.582 OA
ENDBRANCH  33  35
ENDBRANCH   2  33
BRANCH   6  39
ATOM     39  O1  SGN d5702      61.008  44.204  36.414  0.00  0.00    -0.369 OA
ATOM     40  H   SGN d5702      60.663  44.266  37.318  0.00  0.00     0.212 HD
ENDBRANCH   6  39
TORSDOF 14
ENDMDL
MODEL 36
REMARK VINA RESULT:      -3.7      3.507      8.337
REMARK  14 active torsions:
REMARK  status: ('A' for Active; 'I' for Inactive)
REMARK    1  A    between atoms: C5_1  and  C6_23 
REMARK    2  A    between atoms: S2_5  and  O6_7 
REMARK    3  A    between atoms: O1_6  and  C1_35 
REMARK    4  A    between atoms: O6_7  and  C6_21 
REMARK    5  A    between atoms: O2_9  and  C2_28 
REMARK    6  A    between atoms: O2_9  and  S_13 
REMARK    7  A    between atoms: C3_10  and  O3_20 
REMARK    8  A    between atoms: C1_11  and  O4_12 
REMARK    9  A    between atoms: O4_12  and  C4_19 
REMARK   10  A    between atoms: C2_15  and  N_29 
REMARK   11  A    between atoms: C5_17  and  C6_21 
REMARK   12  A    between atoms: C6_23  and  O61_33 
REMARK   13  A    between atoms: O3_24  and  C3_26 
REMARK   14  A    between atoms: S1_27  and  N_29 
ROOT
ATOM      1  O5  SGN d5702      64.746  40.359  37.048  0.00  0.00    -0.350 OA
ATOM      2  C2  SGN d5702      62.371  40.677  37.197  0.00  0.00     0.160 C 
ATOM      3  C5  SGN d5702      64.730  39.252  37.917  0.00  0.00     0.181 C 
ATOM      4  C4  SGN d5702      63.360  38.552  37.816  0.00  0.00     0.186 C 
ATOM      5  C3  SGN d5702      62.274  39.582  38.227  0.00  0.00     0.173 C 
ATOM      6  C1  SGN d5702      63.732  41.345  37.263  0.00  0.00     0.278 C 
ENDROOT
BRANCH   4   7
ATOM      7  O4  SGN d5702      63.417  37.416  38.722  0.00  0.00    -0.348 OA
BRANCH   7   8
ATOM      8  C1  IDU d1623      63.073  36.081  38.413  0.00  0.00     0.294 C 
ATOM      9  O5  IDU d1623      63.882  35.503  37.338  0.00  0.00    -0.343 OA
ATOM     10  C5  IDU d1623      63.448  34.160  36.922  0.00  0.00     0.224 C 
ATOM     11  C4  IDU d1623      63.566  33.207  38.123  0.00  0.00     0.077 C 
ATOM     12  C3  IDU d1623      62.725  33.743  39.292  0.00  0.00     0.156 C 
ATOM     13  C2  IDU d1623      63.235  35.153  39.628  0.00  0.00     0.228 C 
BRANCH  10  14
ATOM     14  C6  IDU d1623      64.308  33.624  35.810  0.00  0.00     0.170 C 
ATOM     15  O62 IDU d1623      65.538  33.752  35.907  0.00  0.00    -0.648 OA
BRANCH  14  16
ATOM     16  O61 IDU d1623      63.735  33.078  34.845  0.00  0.00    -0.774 OA
ENDBRANCH  14  16
ENDBRANCH  10  14
BRANCH  12  18
ATOM     18  O3  IDU d1623      61.378  33.797  38.913  0.00  0.00    -0.393 OA
ATOM     19  H   IDU d1623      61.042  32.896  38.785  0.00  0.00     0.210 HD
ENDBRANCH  12  18
BRANCH  13  20
ATOM     20  O2  IDU d1623      64.606  35.101  39.944  0.00  0.00    -0.244 OA
BRANCH  20  21
ATOM     21  S   IDU d1623      65.138  35.867  41.404  0.00  0.00     0.252 S 
ATOM     22  O3S IDU d1623      64.034  36.199  42.225  0.00  0.00    -0.572 OA
ATOM     23  O1S IDU d1623      65.924  36.999  41.014  0.00  0.00    -0.572 OA
ATOM     24  O2S IDU d1623      65.964  34.964  42.191  0.00  0.00    -0.572 OA
ENDBRANCH  20  21
ENDBRANCH  13  20
ENDBRANCH   7   8
ENDBRANCH   4   7
BRANCH   3  25
ATOM     25  C6  SGN d5702      65.855  38.354  37.509  0.00  0.00     0.227 C 
BRANCH  25  26
ATOM     26  O6  SGN d5702      65.553  38.041  36.158  0.00  0.00    -0.254 OA
BRANCH  26  27
ATOM     27  S2  SGN d5702      66.775  37.293  35.187  0.00  0.00     0.251 S 
ATOM     28  O4S SGN d5702      66.200  36.496  34.151  0.00  0.00    -0.572 OA
ATOM     29  O5S SGN d5702      67.579  36.457  36.033  0.00  0.00    -0.572 OA
ATOM     30  O6S SGN d5702      67.508  38.377  34.602  0.00  0.00    -0.572 OA
ENDBRANCH  26  27
ENDBRANCH  25  26
ENDBRANCH   3  25
BRANCH   5  31
ATOM     31  O3  SGN d5702      60.999  38.994  38.139  0.00  0.00    -0.391 OA
ATOM     32  H   SGN d5702      60.321  39.661  38.330  0.00  0.00     0.210 HD
ENDBRANCH   5  31
BRANCH   2  33
ATOM     33  N   SGN d5702      61.389  41.680  37.447  0.00  0.00    -0.189 NA
ATOM     34  H   SGN d5702      61.829  42.455  37.944  0.00  0.00     0.143 HD
BRANCH  33  35
ATOM     35  S1  SGN d5702      60.673  42.291  35.953  0.00  0.00     0.183 S 
ATOM     36  O1S SGN d5702      61.599  43.229  35.351  0.00  0.00    -0.582 OA
ATOM     37  O2S SGN d5702      59.483  43.009  36.274  0.00  0.00    -0.582 OA
ATOM     38  O3S SGN d5702      60.422  41.115  35.143  0.00  0.00    -0.582 OA
ENDBRANCH  33  35
ENDBRANCH   2  33
BRANCH   6  39
ATOM     39  O1  SGN d5702      63.947  42.017  38.481  0.00  0.00    -0.369 OA
ATOM     40  H   SGN d5702      63.712  41.432  39.219  0.00  0.00     0.212 HD
ENDBRANCH   6  39
TORSDOF 14
ENDMDL
MODEL 37
REMARK VINA RESULT:      -3.7      4.030      6.998
REMARK  14 active torsions:
REMARK  status: ('A' for Active; 'I' for Inactive)
REMARK    1  A    between atoms: C5_1  and  C6_23 
REMARK    2  A    between atoms: S2_5  and  O6_7 
REMARK    3  A    between atoms: O1_6  and  C1_35 
REMARK    4  A    between atoms: O6_7  and  C6_21 
REMARK    5  A    between atoms: O2_9  and  C2_28 
REMARK    6  A    between atoms: O2_9  and  S_13 
REMARK    7  A    between atoms: C3_10  and  O3_20 
REMARK    8  A    between atoms: C1_11  and  O4_12 
REMARK    9  A    between atoms: O4_12  and  C4_19 
REMARK   10  A    between atoms: C2_15  and  N_29 
REMARK   11  A    between atoms: C5_17  and  C6_21 
REMARK   12  A    between atoms: C6_23  and  O61_33 
REMARK   13  A    between atoms: O3_24  and  C3_26 
REMARK   14  A    between atoms: S1_27  and  N_29 
ROOT
ATOM      1  O5  SGN d5702      62.441  40.314  37.340  0.00  0.00    -0.350 OA
ATOM      2  C2  SGN d5702      62.662  38.632  39.039  0.00  0.00     0.160 C 
ATOM      3  C5  SGN d5702      62.359  41.360  38.277  0.00  0.00     0.181 C 
ATOM      4  C4  SGN d5702      63.126  40.956  39.552  0.00  0.00     0.186 C 
ATOM      5  C3  SGN d5702      62.462  39.670  40.112  0.00  0.00     0.173 C 
ATOM      6  C1  SGN d5702      61.943  39.043  37.768  0.00  0.00     0.278 C 
ENDROOT
BRANCH   4   7
ATOM      7  O4  SGN d5702      63.015  42.081  40.467  0.00  0.00    -0.348 OA
BRANCH   7   8
ATOM      8  C1  IDU d1623      64.063  42.655  41.219  0.00  0.00     0.294 C 
ATOM      9  O5  IDU d1623      65.104  43.272  40.394  0.00  0.00    -0.343 OA
ATOM     10  C5  IDU d1623      66.262  43.759  41.162  0.00  0.00     0.224 C 
ATOM     11  C4  IDU d1623      65.784  44.837  42.149  0.00  0.00     0.077 C 
ATOM     12  C3  IDU d1623      64.696  44.254  43.064  0.00  0.00     0.156 C 
ATOM     13  C2  IDU d1623      63.552  43.750  42.170  0.00  0.00     0.228 C 
BRANCH  10  14
ATOM     14  C6  IDU d1623      67.300  44.372  40.261  0.00  0.00     0.170 C 
ATOM     15  O62 IDU d1623      67.822  43.653  39.396  0.00  0.00    -0.648 OA
BRANCH  14  16
ATOM     16  O61 IDU d1623      67.581  45.575  40.435  0.00  0.00    -0.774 OA
ENDBRANCH  14  16
ENDBRANCH  10  14
BRANCH  12  18
ATOM     18  O3  IDU d1623      65.229  43.193  43.806  0.00  0.00    -0.393 OA
ATOM     19  H   IDU d1623      64.532  42.799  44.354  0.00  0.00     0.210 HD
ENDBRANCH  12  18
BRANCH  13  20
ATOM     20  O2  IDU d1623      63.065  44.807  41.378  0.00  0.00    -0.244 OA
BRANCH  20  21
ATOM     21  S   IDU d1623      61.384  45.210  41.495  0.00  0.00     0.252 S 
ATOM     22  O3S IDU d1623      60.805  45.316  40.209  0.00  0.00    -0.572 OA
ATOM     23  O1S IDU d1623      61.302  46.415  42.264  0.00  0.00    -0.572 OA
ATOM     24  O2S IDU d1623      60.648  44.159  42.181  0.00  0.00    -0.572 OA
ENDBRANCH  20  21
ENDBRANCH  13  20
ENDBRANCH   7   8
ENDBRANCH   4   7
BRANCH   3  25
ATOM     25  C6  SGN d5702      62.938  42.579  37.631  0.00  0.00     0.227 C 
BRANCH  25  26
ATOM     26  O6  SGN d5702      61.853  43.494  37.621  0.00  0.00    -0.254 OA
BRANCH  26  27
ATOM     27  S2  SGN d5702      60.810  43.529  36.240  0.00  0.00     0.251 S 
ATOM     28  O4S SGN d5702      59.862  44.592  36.332  0.00  0.00    -0.572 OA
ATOM     29  O5S SGN d5702      60.110  42.278  36.168  0.00  0.00    -0.572 OA
ATOM     30  O6S SGN d5702      61.675  43.759  35.120  0.00  0.00    -0.572 OA
ENDBRANCH  26  27
ENDBRANCH  25  26
ENDBRANCH   3  25
BRANCH   5  31
ATOM     31  O3  SGN d5702      63.136  39.251  41.274  0.00  0.00    -0.391 OA
ATOM     32  H   SGN d5702      63.874  39.854  41.455  0.00  0.00     0.210 HD
ENDBRANCH   5  31
BRANCH   2  33
ATOM     33  N   SGN d5702      62.120  37.381  39.454  0.00  0.00    -0.189 NA
ATOM     34  H   SGN d5702      61.379  37.111  38.805  0.00  0.00     0.143 HD
BRANCH  33  35
ATOM     35  S1  SGN d5702      63.343  36.107  39.483  0.00  0.00     0.183 S 
ATOM     36  O1S SGN d5702      63.647  35.732  38.116  0.00  0.00    -0.582 OA
ATOM     37  O2S SGN d5702      62.797  34.960  40.132  0.00  0.00    -0.582 OA
ATOM     38  O3S SGN d5702      64.469  36.678  40.197  0.00  0.00    -0.582 OA
ENDBRANCH  33  35
ENDBRANCH   2  33
BRANCH   6  39
ATOM     39  O1  SGN d5702      60.545  39.088  37.927  0.00  0.00    -0.369 OA
ATOM     40  H   SGN d5702      60.163  39.678  37.257  0.00  0.00     0.212 HD
ENDBRANCH   6  39
TORSDOF 14
ENDMDL
MODEL 38
REMARK VINA RESULT:      -3.7      3.430      6.456
REMARK  14 active torsions:
REMARK  status: ('A' for Active; 'I' for Inactive)
REMARK    1  A    between atoms: C5_1  and  C6_23 
REMARK    2  A    between atoms: S2_5  and  O6_7 
REMARK    3  A    between atoms: O1_6  and  C1_35 
REMARK    4  A    between atoms: O6_7  and  C6_21 
REMARK    5  A    between atoms: O2_9  and  C2_28 
REMARK    6  A    between atoms: O2_9  and  S_13 
REMARK    7  A    between atoms: C3_10  and  O3_20 
REMARK    8  A    between atoms: C1_11  and  O4_12 
REMARK    9  A    between atoms: O4_12  and  C4_19 
REMARK   10  A    between atoms: C2_15  and  N_29 
REMARK   11  A    between atoms: C5_17  and  C6_21 
REMARK   12  A    between atoms: C6_23  and  O61_33 
REMARK   13  A    between atoms: O3_24  and  C3_26 
REMARK   14  A    between atoms: S1_27  and  N_29 
ROOT
ATOM      1  O5  SGN d5702      63.666  37.432  38.161  0.00  0.00    -0.350 OA
ATOM      2  C2  SGN d5702      62.539  37.719  40.261  0.00  0.00     0.160 C 
ATOM      3  C5  SGN d5702      63.289  38.706  37.697  0.00  0.00     0.181 C 
ATOM      4  C4  SGN d5702      63.103  39.647  38.904  0.00  0.00     0.186 C 
ATOM      5  C3  SGN d5702      61.990  39.044  39.802  0.00  0.00     0.173 C 
ATOM      6  C1  SGN d5702      62.763  36.801  39.074  0.00  0.00     0.278 C 
ENDROOT
BRANCH   4   7
ATOM      7  O4  SGN d5702      62.732  40.942  38.356  0.00  0.00    -0.348 OA
BRANCH   7   8
ATOM      8  C1  IDU d1623      62.952  42.200  38.958  0.00  0.00     0.294 C 
ATOM      9  O5  IDU d1623      64.369  42.532  39.117  0.00  0.00    -0.343 OA
ATOM     10  C5  IDU d1623      64.609  43.781  39.859  0.00  0.00     0.224 C 
ATOM     11  C4  IDU d1623      63.967  44.946  39.088  0.00  0.00     0.077 C 
ATOM     12  C3  IDU d1623      62.467  44.674  38.896  0.00  0.00     0.156 C 
ATOM     13  C2  IDU d1623      62.324  43.342  38.143  0.00  0.00     0.228 C 
BRANCH  10  14
ATOM     14  C6  IDU d1623      66.080  44.063  39.999  0.00  0.00     0.170 C 
ATOM     15  O62 IDU d1623      66.455  44.755  40.958  0.00  0.00    -0.648 OA
BRANCH  14  16
ATOM     16  O61 IDU d1623      66.847  43.584  39.139  0.00  0.00    -0.774 OA
ENDBRANCH  14  16
ENDBRANCH  10  14
BRANCH  12  18
ATOM     18  O3  IDU d1623      61.844  44.587  40.148  0.00  0.00    -0.393 OA
ATOM     19  H   IDU d1623      61.595  43.666  40.322  0.00  0.00     0.210 HD
ENDBRANCH  12  18
BRANCH  13  20
ATOM     20  O2  IDU d1623      63.009  43.414  36.915  0.00  0.00    -0.244 OA
BRANCH  20  21
ATOM     21  S   IDU d1623      62.101  43.184  35.458  0.00  0.00     0.252 S 
ATOM     22  O3S IDU d1623      62.045  41.812  35.116  0.00  0.00    -0.572 OA
ATOM     23  O1S IDU d1623      62.715  44.000  34.455  0.00  0.00    -0.572 OA
ATOM     24  O2S IDU d1623      60.721  43.609  35.636  0.00  0.00    -0.572 OA
ENDBRANCH  20  21
ENDBRANCH  13  20
ENDBRANCH   7   8
ENDBRANCH   4   7
BRANCH   3  25
ATOM     25  C6  SGN d5702      64.369  39.177  36.774  0.00  0.00     0.227 C 
BRANCH  25  26
ATOM     26  O6  SGN d5702      65.461  38.323  37.083  0.00  0.00    -0.254 OA
BRANCH  26  27
ATOM     27  S2  SGN d5702      66.832  38.992  37.900  0.00  0.00     0.251 S 
ATOM     28  O4S SGN d5702      66.704  40.404  38.059  0.00  0.00    -0.572 OA
ATOM     29  O5S SGN d5702      68.006  38.710  37.123  0.00  0.00    -0.572 OA
ATOM     30  O6S SGN d5702      66.844  38.367  39.190  0.00  0.00    -0.572 OA
ENDBRANCH  26  27
ENDBRANCH  25  26
ENDBRANCH   3  25
BRANCH   5  31
ATOM     31  O3  SGN d5702      61.790  39.862  40.929  0.00  0.00    -0.391 OA
ATOM     32  H   SGN d5702      61.739  39.310  41.725  0.00  0.00     0.210 HD
ENDBRANCH   5  31
BRANCH   2  33
ATOM     33  N   SGN d5702      61.613  37.075  41.133  0.00  0.00    -0.189 NA
ATOM     34  H   SGN d5702      61.375  36.162  40.744  0.00  0.00     0.143 HD
BRANCH  33  35
ATOM     35  S1  SGN d5702      62.277  36.850  42.754  0.00  0.00     0.183 S 
ATOM     36  O1S SGN d5702      61.193  36.492  43.648  0.00  0.00    -0.582 OA
ATOM     37  O2S SGN d5702      62.815  38.091  43.206  0.00  0.00    -0.582 OA
ATOM     38  O3S SGN d5702      63.284  35.816  42.612  0.00  0.00    -0.582 OA
ENDBRANCH  33  35
ENDBRANCH   2  33
BRANCH   6  39
ATOM     39  O1  SGN d5702      61.564  36.454  38.423  0.00  0.00    -0.369 OA
ATOM     40  H   SGN d5702      61.410  37.063  37.684  0.00  0.00     0.212 HD
ENDBRANCH   6  39
TORSDOF 14
ENDMDL
MODEL 39
REMARK VINA RESULT:      -3.7      3.061      3.859
REMARK  14 active torsions:
REMARK  status: ('A' for Active; 'I' for Inactive)
REMARK    1  A    between atoms: C5_1  and  C6_23 
REMARK    2  A    between atoms: S2_5  and  O6_7 
REMARK    3  A    between atoms: O1_6  and  C1_35 
REMARK    4  A    between atoms: O6_7  and  C6_21 
REMARK    5  A    between atoms: O2_9  and  C2_28 
REMARK    6  A    between atoms: O2_9  and  S_13 
REMARK    7  A    between atoms: C3_10  and  O3_20 
REMARK    8  A    between atoms: C1_11  and  O4_12 
REMARK    9  A    between atoms: O4_12  and  C4_19 
REMARK   10  A    between atoms: C2_15  and  N_29 
REMARK   11  A    between atoms: C5_17  and  C6_21 
REMARK   12  A    between atoms: C6_23  and  O61_33 
REMARK   13  A    between atoms: O3_24  and  C3_26 
REMARK   14  A    between atoms: S1_27  and  N_29 
ROOT
ATOM      1  O5  SGN d5702      62.594  39.861  39.655  0.00  0.00    -0.350 OA
ATOM      2  C2  SGN d5702      64.425  41.022  40.686  0.00  0.00     0.160 C 
ATOM      3  C5  SGN d5702      62.758  40.533  38.429  0.00  0.00     0.181 C 
ATOM      4  C4  SGN d5702      64.237  40.938  38.271  0.00  0.00     0.186 C 
ATOM      5  C3  SGN d5702      64.597  41.874  39.456  0.00  0.00     0.173 C 
ATOM      6  C1  SGN d5702      62.978  40.585  40.827  0.00  0.00     0.278 C 
ENDROOT
BRANCH   4   7
ATOM      7  O4  SGN d5702      64.339  41.609  36.984  0.00  0.00    -0.348 OA
BRANCH   7   8
ATOM      8  C1  IDU d1623      65.343  41.407  36.012  0.00  0.00     0.294 C 
ATOM      9  O5  IDU d1623      65.129  40.215  35.189  0.00  0.00    -0.343 OA
ATOM     10  C5  IDU d1623      66.234  39.926  34.261  0.00  0.00     0.224 C 
ATOM     11  C4  IDU d1623      66.389  41.109  33.291  0.00  0.00     0.077 C 
ATOM     12  C3  IDU d1623      66.635  42.400  34.088  0.00  0.00     0.156 C 
ATOM     13  C2  IDU d1623      65.447  42.596  35.042  0.00  0.00     0.228 C 
BRANCH  10  14
ATOM     14  C6  IDU d1623      65.961  38.687  33.452  0.00  0.00     0.170 C 
ATOM     15  O62 IDU d1623      65.467  38.823  32.322  0.00  0.00    -0.648 OA
BRANCH  14  16
ATOM     16  O61 IDU d1623      66.247  37.585  33.963  0.00  0.00    -0.774 OA
ENDBRANCH  14  16
ENDBRANCH  10  14
BRANCH  12  18
ATOM     18  O3  IDU d1623      67.824  42.280  34.818  0.00  0.00    -0.393 OA
ATOM     19  H   IDU d1623      68.559  42.101  34.211  0.00  0.00     0.210 HD
ENDBRANCH  12  18
BRANCH  13  20
ATOM     20  O2  IDU d1623      64.248  42.650  34.306  0.00  0.00    -0.244 OA
BRANCH  20  21
ATOM     21  S   IDU d1623      63.374  44.145  34.276  0.00  0.00     0.252 S 
ATOM     22  O3S IDU d1623      62.925  44.435  32.965  0.00  0.00    -0.572 OA
ATOM     23  O1S IDU d1623      64.246  45.143  34.818  0.00  0.00    -0.572 OA
ATOM     24  O2S IDU d1623      62.178  44.061  35.099  0.00  0.00    -0.572 OA
ENDBRANCH  20  21
ENDBRANCH  13  20
ENDBRANCH   7   8
ENDBRANCH   4   7
BRANCH   3  25
ATOM     25  C6  SGN d5702      62.309  39.598  37.350  0.00  0.00     0.227 C 
BRANCH  25  26
ATOM     26  O6  SGN d5702      61.010  40.070  37.026  0.00  0.00    -0.254 OA
BRANCH  26  27
ATOM     27  S2  SGN d5702      60.689  40.563  35.398  0.00  0.00     0.251 S 
ATOM     28  O4S SGN d5702      59.896  39.597  34.709  0.00  0.00    -0.572 OA
ATOM     29  O5S SGN d5702      61.942  40.717  34.715  0.00  0.00    -0.572 OA
ATOM     30  O6S SGN d5702      59.953  41.788  35.513  0.00  0.00    -0.572 OA
ENDBRANCH  26  27
ENDBRANCH  25  26
ENDBRANCH   3  25
BRANCH   5  31
ATOM     31  O3  SGN d5702      65.946  42.263  39.365  0.00  0.00    -0.391 OA
ATOM     32  H   SGN d5702      66.005  43.231  39.373  0.00  0.00     0.210 HD
ENDBRANCH   5  31
BRANCH   2  33
ATOM     33  N   SGN d5702      64.763  41.766  41.854  0.00  0.00    -0.189 NA
ATOM     34  H   SGN d5702      64.113  41.521  42.601  0.00  0.00     0.143 HD
BRANCH  33  35
ATOM     35  S1  SGN d5702      66.410  41.430  42.398  0.00  0.00     0.183 S 
ATOM     36  O1S SGN d5702      66.908  40.280  41.669  0.00  0.00    -0.582 OA
ATOM     37  O2S SGN d5702      66.375  41.080  43.780  0.00  0.00    -0.582 OA
ATOM     38  O3S SGN d5702      67.151  42.650  42.142  0.00  0.00    -0.582 OA
ENDBRANCH  33  35
ENDBRANCH   2  33
BRANCH   6  39
ATOM     39  O1  SGN d5702      62.104  41.667  41.048  0.00  0.00    -0.369 OA
ATOM     40  H   SGN d5702      62.566  42.357  41.550  0.00  0.00     0.212 HD
ENDBRANCH   6  39
TORSDOF 14
ENDMDL
MODEL 40
REMARK VINA RESULT:      -3.7      3.827      6.503
REMARK  14 active torsions:
REMARK  status: ('A' for Active; 'I' for Inactive)
REMARK    1  A    between atoms: C5_1  and  C6_23 
REMARK    2  A    between atoms: S2_5  and  O6_7 
REMARK    3  A    between atoms: O1_6  and  C1_35 
REMARK    4  A    between atoms: O6_7  and  C6_21 
REMARK    5  A    between atoms: O2_9  and  C2_28 
REMARK    6  A    between atoms: O2_9  and  S_13 
REMARK    7  A    between atoms: C3_10  and  O3_20 
REMARK    8  A    between atoms: C1_11  and  O4_12 
REMARK    9  A    between atoms: O4_12  and  C4_19 
REMARK   10  A    between atoms: C2_15  and  N_29 
REMARK   11  A    between atoms: C5_17  and  C6_21 
REMARK   12  A    between atoms: C6_23  and  O61_33 
REMARK   13  A    between atoms: O3_24  and  C3_26 
REMARK   14  A    between atoms: S1_27  and  N_29 
ROOT
ATOM      1  O5  SGN d5702      60.713  44.827  37.722  0.00  0.00    -0.350 OA
ATOM      2  C2  SGN d5702      61.443  44.847  40.009  0.00  0.00     0.160 C 
ATOM      3  C5  SGN d5702      61.909  44.244  37.264  0.00  0.00     0.181 C 
ATOM      4  C4  SGN d5702      62.520  43.393  38.396  0.00  0.00     0.186 C 
ATOM      5  C3  SGN d5702      62.799  44.337  39.596  0.00  0.00     0.173 C 
ATOM      6  C1  SGN d5702      60.818  45.653  38.885  0.00  0.00     0.278 C 
ENDROOT
BRANCH   4   7
ATOM      7  O4  SGN d5702      63.738  42.811  37.854  0.00  0.00    -0.348 OA
BRANCH   7   8
ATOM      8  C1  IDU d1623      64.388  41.646  38.318  0.00  0.00     0.294 C 
ATOM      9  O5  IDU d1623      63.554  40.445  38.248  0.00  0.00    -0.343 OA
ATOM     10  C5  IDU d1623      64.175  39.253  38.847  0.00  0.00     0.224 C 
ATOM     11  C4  IDU d1623      65.473  38.934  38.086  0.00  0.00     0.077 C 
ATOM     12  C3  IDU d1623      66.410  40.152  38.131  0.00  0.00     0.156 C 
ATOM     13  C2  IDU d1623      65.661  41.342  37.512  0.00  0.00     0.228 C 
BRANCH  10  14
ATOM     14  C6  IDU d1623      63.269  38.055  38.754  0.00  0.00     0.170 C 
ATOM     15  O62 IDU d1623      62.316  37.980  39.544  0.00  0.00    -0.648 OA
BRANCH  14  16
ATOM     16  O61 IDU d1623      63.527  37.198  37.885  0.00  0.00    -0.774 OA
ENDBRANCH  14  16
ENDBRANCH  10  14
BRANCH  12  18
ATOM     18  O3  IDU d1623      66.746  40.433  39.461  0.00  0.00    -0.393 OA
ATOM     19  H   IDU d1623      67.547  39.942  39.702  0.00  0.00     0.210 HD
ENDBRANCH  12  18
BRANCH  13  20
ATOM     20  O2  IDU d1623      65.268  41.027  36.198  0.00  0.00    -0.244 OA
BRANCH  20  21
ATOM     21  S   IDU d1623      66.398  41.311  34.916  0.00  0.00     0.252 S 
ATOM     22  O3S IDU d1623      65.764  41.946  33.822  0.00  0.00    -0.572 OA
ATOM     23  O1S IDU d1623      66.977  40.043  34.588  0.00  0.00    -0.572 OA
ATOM     24  O2S IDU d1623      67.452  42.216  35.348  0.00  0.00    -0.572 OA
ENDBRANCH  20  21
ENDBRANCH  13  20
ENDBRANCH   7   8
ENDBRANCH   4   7
BRANCH   3  25
ATOM     25  C6  SGN d5702      61.568  43.423  36.060  0.00  0.00     0.227 C 
BRANCH  25  26
ATOM     26  O6  SGN d5702      61.079  42.212  36.616  0.00  0.00    -0.254 OA
BRANCH  26  27
ATOM     27  S2  SGN d5702      61.067  40.792  35.627  0.00  0.00     0.251 S 
ATOM     28  O4S SGN d5702      59.920  40.759  34.778  0.00  0.00    -0.572 OA
ATOM     29  O5S SGN d5702      61.052  39.641  36.484  0.00  0.00    -0.572 OA
ATOM     30  O6S SGN d5702      62.251  40.882  34.823  0.00  0.00    -0.572 OA
ENDBRANCH  26  27
ENDBRANCH  25  26
ENDBRANCH   3  25
BRANCH   5  31
ATOM     31  O3  SGN d5702      63.347  43.603  40.664  0.00  0.00    -0.391 OA
ATOM     32  H   SGN d5702      63.629  44.213  41.364  0.00  0.00     0.210 HD
ENDBRANCH   5  31
BRANCH   2  33
ATOM     33  N   SGN d5702      61.562  45.708  41.139  0.00  0.00    -0.189 NA
ATOM     34  H   SGN d5702      61.129  46.605  40.917  0.00  0.00     0.143 HD
BRANCH  33  35
ATOM     35  S1  SGN d5702      60.775  45.034  42.569  0.00  0.00     0.183 S 
ATOM     36  O1S SGN d5702      60.785  43.589  42.460  0.00  0.00    -0.582 OA
ATOM     37  O2S SGN d5702      59.412  45.454  42.584  0.00  0.00    -0.582 OA
ATOM     38  O3S SGN d5702      61.534  45.542  43.696  0.00  0.00    -0.582 OA
ENDBRANCH  33  35
ENDBRANCH   2  33
BRANCH   6  39
ATOM     39  O1  SGN d5702      61.538  46.827  38.594  0.00  0.00    -0.369 OA
ATOM     40  H   SGN d5702      61.066  47.335  37.916  0.00  0.00     0.212 HD
ENDBRANCH   6  39
TORSDOF 14
ENDMDL
MODEL 41
REMARK VINA RESULT:      -3.7      2.971      7.921
REMARK  14 active torsions:
REMARK  status: ('A' for Active; 'I' for Inactive)
REMARK    1  A    between atoms: C5_1  and  C6_23 
REMARK    2  A    between atoms: S2_5  and  O6_7 
REMARK    3  A    between atoms: O1_6  and  C1_35 
REMARK    4  A    between atoms: O6_7  and  C6_21 
REMARK    5  A    between atoms: O2_9  and  C2_28 
REMARK    6  A    between atoms: O2_9  and  S_13 
REMARK    7  A    between atoms: C3_10  and  O3_20 
REMARK    8  A    between atoms: C1_11  and  O4_12 
REMARK    9  A    between atoms: O4_12  and  C4_19 
REMARK   10  A    between atoms: C2_15  and  N_29 
REMARK   11  A    between atoms: C5_17  and  C6_21 
REMARK   12  A    between atoms: C6_23  and  O61_33 
REMARK   13  A    between atoms: O3_24  and  C3_26 
REMARK   14  A    between atoms: S1_27  and  N_29 
ROOT
ATOM      1  O5  SGN d5702      61.633  40.817  37.138  0.00  0.00    -0.350 OA
ATOM      2  C2  SGN d5702      62.990  41.833  35.438  0.00  0.00     0.160 C 
ATOM      3  C5  SGN d5702      62.524  39.742  37.315  0.00  0.00     0.181 C 
ATOM      4  C4  SGN d5702      63.950  40.206  36.957  0.00  0.00     0.186 C 
ATOM      5  C3  SGN d5702      63.937  40.662  35.473  0.00  0.00     0.173 C 
ATOM      6  C1  SGN d5702      61.591  41.392  35.829  0.00  0.00     0.278 C 
ENDROOT
BRANCH   4   7
ATOM      7  O4  SGN d5702      64.817  39.059  37.176  0.00  0.00    -0.348 OA
BRANCH   7   8
ATOM      8  C1  IDU d1623      66.098  39.079  37.772  0.00  0.00     0.294 C 
ATOM      9  O5  IDU d1623      66.072  39.390  39.203  0.00  0.00    -0.343 OA
ATOM     10  C5  IDU d1623      67.407  39.539  39.804  0.00  0.00     0.224 C 
ATOM     11  C4  IDU d1623      68.169  38.213  39.654  0.00  0.00     0.077 C 
ATOM     12  C3  IDU d1623      68.252  37.829  38.169  0.00  0.00     0.156 C 
ATOM     13  C2  IDU d1623      66.816  37.727  37.631  0.00  0.00     0.228 C 
BRANCH  10  14
ATOM     14  C6  IDU d1623      67.315  39.867  41.269  0.00  0.00     0.170 C 
ATOM     15  O62 IDU d1623      66.599  39.152  41.986  0.00  0.00    -0.648 OA
BRANCH  14  16
ATOM     16  O61 IDU d1623      67.967  40.847  41.686  0.00  0.00    -0.774 OA
ENDBRANCH  14  16
ENDBRANCH  10  14
BRANCH  12  18
ATOM     18  O3  IDU d1623      68.958  38.816  37.469  0.00  0.00    -0.393 OA
ATOM     19  H   IDU d1623      68.388  39.197  36.784  0.00  0.00     0.210 HD
ENDBRANCH  12  18
BRANCH  13  20
ATOM     20  O2  IDU d1623      66.092  36.781  38.381  0.00  0.00    -0.244 OA
BRANCH  20  21
ATOM     21  S   IDU d1623      65.531  35.354  37.575  0.00  0.00     0.252 S 
ATOM     22  O3S IDU d1623      66.517  34.861  36.688  0.00  0.00    -0.572 OA
ATOM     23  O1S IDU d1623      64.301  35.702  36.929  0.00  0.00    -0.572 OA
ATOM     24  O2S IDU d1623      65.280  34.286  38.530  0.00  0.00    -0.572 OA
ENDBRANCH  20  21
ENDBRANCH  13  20
ENDBRANCH   7   8
ENDBRANCH   4   7
BRANCH   3  25
ATOM     25  C6  SGN d5702      62.413  39.307  38.743  0.00  0.00     0.227 C 
BRANCH  25  26
ATOM     26  O6  SGN d5702      62.280  37.897  38.648  0.00  0.00    -0.254 OA
BRANCH  26  27
ATOM     27  S2  SGN d5702      62.566  36.940  40.061  0.00  0.00     0.251 S 
ATOM     28  O4S SGN d5702      61.667  37.285  41.114  0.00  0.00    -0.572 OA
ATOM     29  O5S SGN d5702      63.914  37.168  40.499  0.00  0.00    -0.572 OA
ATOM     30  O6S SGN d5702      62.325  35.586  39.655  0.00  0.00    -0.572 OA
ENDBRANCH  26  27
ENDBRANCH  25  26
ENDBRANCH   3  25
BRANCH   5  31
ATOM     31  O3  SGN d5702      65.217  41.109  35.099  0.00  0.00    -0.391 OA
ATOM     32  H   SGN d5702      65.834  40.976  35.835  0.00  0.00     0.210 HD
ENDBRANCH   5  31
BRANCH   2  33
ATOM     33  N   SGN d5702      62.917  42.370  34.119  0.00  0.00    -0.189 NA
ATOM     34  H   SGN d5702      61.945  42.351  33.809  0.00  0.00     0.143 HD
BRANCH  33  35
ATOM     35  S1  SGN d5702      63.504  44.034  34.050  0.00  0.00     0.183 S 
ATOM     36  O1S SGN d5702      64.953  44.008  34.008  0.00  0.00    -0.582 OA
ATOM     37  O2S SGN d5702      63.122  44.707  35.249  0.00  0.00    -0.582 OA
ATOM     38  O3S SGN d5702      62.895  44.604  32.864  0.00  0.00    -0.582 OA
ENDBRANCH  33  35
ENDBRANCH   2  33
BRANCH   6  39
ATOM     39  O1  SGN d5702      61.031  40.486  34.909  0.00  0.00    -0.369 OA
ATOM     40  H   SGN d5702      61.215  40.788  34.006  0.00  0.00     0.212 HD
ENDBRANCH   6  39
TORSDOF 14
ENDMDL
MODEL 42
REMARK VINA RESULT:      -3.7      2.128      2.871
REMARK  14 active torsions:
REMARK  status: ('A' for Active; 'I' for Inactive)
REMARK    1  A    between atoms: C5_1  and  C6_23 
REMARK    2  A    between atoms: S2_5  and  O6_7 
REMARK    3  A    between atoms: O1_6  and  C1_35 
REMARK    4  A    between atoms: O6_7  and  C6_21 
REMARK    5  A    between atoms: O2_9  and  C2_28 
REMARK    6  A    between atoms: O2_9  and  S_13 
REMARK    7  A    between atoms: C3_10  and  O3_20 
REMARK    8  A    between atoms: C1_11  and  O4_12 
REMARK    9  A    between atoms: O4_12  and  C4_19 
REMARK   10  A    between atoms: C2_15  and  N_29 
REMARK   11  A    between atoms: C5_17  and  C6_21 
REMARK   12  A    between atoms: C6_23  and  O61_33 
REMARK   13  A    between atoms: O3_24  and  C3_26 
REMARK   14  A    between atoms: S1_27  and  N_29 
ROOT
ATOM      1  O5  SGN d5702      61.969  39.944  38.056  0.00  0.00    -0.350 OA
ATOM      2  C2  SGN d5702      62.930  37.809  38.586  0.00  0.00     0.160 C 
ATOM      3  C5  SGN d5702      63.178  40.446  37.539  0.00  0.00     0.181 C 
ATOM      4  C4  SGN d5702      64.016  39.275  36.989  0.00  0.00     0.186 C 
ATOM      5  C3  SGN d5702      64.290  38.301  38.166  0.00  0.00     0.173 C 
ATOM      6  C1  SGN d5702      62.085  38.964  39.091  0.00  0.00     0.278 C 
ENDROOT
BRANCH   4   7
ATOM      7  O4  SGN d5702      65.236  39.862  36.459  0.00  0.00    -0.348 OA
BRANCH   7   8
ATOM      8  C1  IDU d1623      65.832  39.572  35.211  0.00  0.00     0.294 C 
ATOM      9  O5  IDU d1623      64.972  39.881  34.067  0.00  0.00    -0.343 OA
ATOM     10  C5  IDU d1623      65.532  39.464  32.771  0.00  0.00     0.224 C 
ATOM     11  C4  IDU d1623      66.858  40.208  32.541  0.00  0.00     0.077 C 
ATOM     12  C3  IDU d1623      67.822  39.915  33.702  0.00  0.00     0.156 C 
ATOM     13  C2  IDU d1623      67.136  40.357  35.004  0.00  0.00     0.228 C 
BRANCH  10  14
ATOM     14  C6  IDU d1623      64.601  39.798  31.637  0.00  0.00     0.170 C 
ATOM     15  O62 IDU d1623      64.365  38.919  30.795  0.00  0.00    -0.648 OA
BRANCH  14  16
ATOM     16  O61 IDU d1623      64.117  40.948  31.604  0.00  0.00    -0.774 OA
ENDBRANCH  14  16
ENDBRANCH  10  14
BRANCH  12  18
ATOM     18  O3  IDU d1623      68.097  38.543  33.746  0.00  0.00    -0.393 OA
ATOM     19  H   IDU d1623      67.384  38.056  33.305  0.00  0.00     0.210 HD
ENDBRANCH  12  18
BRANCH  13  20
ATOM     20  O2  IDU d1623      66.802  41.723  34.926  0.00  0.00    -0.244 OA
BRANCH  20  21
ATOM     21  S   IDU d1623      67.299  42.761  36.222  0.00  0.00     0.252 S 
ATOM     22  O3S IDU d1623      67.630  44.047  35.733  0.00  0.00    -0.572 OA
ATOM     23  O1S IDU d1623      68.383  42.102  36.885  0.00  0.00    -0.572 OA
ATOM     24  O2S IDU d1623      66.213  42.960  37.169  0.00  0.00    -0.572 OA
ENDBRANCH  20  21
ENDBRANCH  13  20
ENDBRANCH   7   8
ENDBRANCH   4   7
BRANCH   3  25
ATOM     25  C6  SGN d5702      62.824  41.438  36.474  0.00  0.00     0.227 C 
BRANCH  25  26
ATOM     26  O6  SGN d5702      61.831  42.243  37.092  0.00  0.00    -0.254 OA
BRANCH  26  27
ATOM     27  S2  SGN d5702      60.946  43.363  36.113  0.00  0.00     0.251 S 
ATOM     28  O4S SGN d5702      61.716  43.795  34.992  0.00  0.00    -0.572 OA
ATOM     29  O5S SGN d5702      60.607  44.501  36.919  0.00  0.00    -0.572 OA
ATOM     30  O6S SGN d5702      59.800  42.636  35.651  0.00  0.00    -0.572 OA
ENDBRANCH  26  27
ENDBRANCH  25  26
ENDBRANCH   3  25
BRANCH   5  31
ATOM     31  O3  SGN d5702      65.044  37.203  37.711  0.00  0.00    -0.391 OA
ATOM     32  H   SGN d5702      65.754  37.014  38.344  0.00  0.00     0.210 HD
ENDBRANCH   5  31
BRANCH   2  33
ATOM     33  N   SGN d5702      63.052  36.869  39.651  0.00  0.00    -0.189 NA
ATOM     34  H   SGN d5702      62.462  37.171  40.427  0.00  0.00     0.143 HD
BRANCH  33  35
ATOM     35  S1  SGN d5702      62.559  35.246  39.158  0.00  0.00     0.183 S 
ATOM     36  O1S SGN d5702      62.239  34.482  40.348  0.00  0.00    -0.582 OA
ATOM     37  O2S SGN d5702      63.661  34.605  38.520  0.00  0.00    -0.582 OA
ATOM     38  O3S SGN d5702      61.430  35.445  38.270  0.00  0.00    -0.582 OA
ENDBRANCH  33  35
ENDBRANCH   2  33
BRANCH   6  39
ATOM     39  O1  SGN d5702      62.604  39.543  40.264  0.00  0.00    -0.369 OA
ATOM     40  H   SGN d5702      62.907  38.843  40.864  0.00  0.00     0.212 HD
ENDBRANCH   6  39
TORSDOF 14
ENDMDL
MODEL 43
REMARK VINA RESULT:      -3.7      3.253      7.604
REMARK  14 active torsions:
REMARK  status: ('A' for Active; 'I' for Inactive)
REMARK    1  A    between atoms: C5_1  and  C6_23 
REMARK    2  A    between atoms: S2_5  and  O6_7 
REMARK    3  A    between atoms: O1_6  and  C1_35 
REMARK    4  A    between atoms: O6_7  and  C6_21 
REMARK    5  A    between atoms: O2_9  and  C2_28 
REMARK    6  A    between atoms: O2_9  and  S_13 
REMARK    7  A    between atoms: C3_10  and  O3_20 
REMARK    8  A    between atoms: C1_11  and  O4_12 
REMARK    9  A    between atoms: O4_12  and  C4_19 
REMARK   10  A    between atoms: C2_15  and  N_29 
REMARK   11  A    between atoms: C5_17  and  C6_21 
REMARK   12  A    between atoms: C6_23  and  O61_33 
REMARK   13  A    between atoms: O3_24  and  C3_26 
REMARK   14  A    between atoms: S1_27  and  N_29 
ROOT
ATOM      1  O5  SGN d5702      62.878  43.935  37.834  0.00  0.00    -0.350 OA
ATOM      2  C2  SGN d5702      63.027  43.625  35.458  0.00  0.00     0.160 C 
ATOM      3  C5  SGN d5702      62.831  42.553  38.089  0.00  0.00     0.181 C 
ATOM      4  C4  SGN d5702      63.576  41.806  36.964  0.00  0.00     0.186 C 
ATOM      5  C3  SGN d5702      62.860  42.137  35.627  0.00  0.00     0.173 C 
ATOM      6  C1  SGN d5702      62.330  44.365  36.584  0.00  0.00     0.278 C 
ENDROOT
BRANCH   4   7
ATOM      7  O4  SGN d5702      63.503  40.393  37.297  0.00  0.00    -0.348 OA
BRANCH   7   8
ATOM      8  C1  IDU d1623      64.549  39.450  37.182  0.00  0.00     0.294 C 
ATOM      9  O5  IDU d1623      65.702  39.751  38.034  0.00  0.00    -0.343 OA
ATOM     10  C5  IDU d1623      66.846  38.848  37.827  0.00  0.00     0.224 C 
ATOM     11  C4  IDU d1623      66.411  37.412  38.162  0.00  0.00     0.077 C 
ATOM     12  C3  IDU d1623      65.209  37.019  37.290  0.00  0.00     0.156 C 
ATOM     13  C2  IDU d1623      64.086  38.033  37.557  0.00  0.00     0.228 C 
BRANCH  10  14
ATOM     14  C6  IDU d1623      68.001  39.212  38.720  0.00  0.00     0.170 C 
ATOM     15  O62 IDU d1623      68.435  38.347  39.496  0.00  0.00    -0.648 OA
BRANCH  14  16
ATOM     16  O61 IDU d1623      68.461  40.369  38.632  0.00  0.00    -0.774 OA
ENDBRANCH  14  16
ENDBRANCH  10  14
BRANCH  12  18
ATOM     18  O3  IDU d1623      65.579  37.055  35.940  0.00  0.00    -0.393 OA
ATOM     19  H   IDU d1623      65.407  37.940  35.581  0.00  0.00     0.210 HD
ENDBRANCH  12  18
BRANCH  13  20
ATOM     20  O2  IDU d1623      63.764  38.039  38.927  0.00  0.00    -0.244 OA
BRANCH  20  21
ATOM     21  S   IDU d1623      62.789  36.747  39.544  0.00  0.00     0.252 S 
ATOM     22  O3S IDU d1623      61.987  36.193  38.518  0.00  0.00    -0.572 OA
ATOM     23  O1S IDU d1623      62.034  37.286  40.635  0.00  0.00    -0.572 OA
ATOM     24  O2S IDU d1623      63.621  35.659  40.034  0.00  0.00    -0.572 OA
ENDBRANCH  20  21
ENDBRANCH  13  20
ENDBRANCH   7   8
ENDBRANCH   4   7
BRANCH   3  25
ATOM     25  C6  SGN d5702      63.460  42.329  39.429  0.00  0.00     0.227 C 
BRANCH  25  26
ATOM     26  O6  SGN d5702      64.331  43.441  39.573  0.00  0.00    -0.254 OA
BRANCH  26  27
ATOM     27  S2  SGN d5702      66.021  43.146  39.798  0.00  0.00     0.251 S 
ATOM     28  O4S SGN d5702      66.247  41.921  40.494  0.00  0.00    -0.572 OA
ATOM     29  O5S SGN d5702      66.574  44.230  40.560  0.00  0.00    -0.572 OA
ATOM     30  O6S SGN d5702      66.567  43.049  38.476  0.00  0.00    -0.572 OA
ENDBRANCH  26  27
ENDBRANCH  25  26
ENDBRANCH   3  25
BRANCH   5  31
ATOM     31  O3  SGN d5702      63.513  41.489  34.563  0.00  0.00    -0.391 OA
ATOM     32  H   SGN d5702      63.482  40.529  34.701  0.00  0.00     0.210 HD
ENDBRANCH   5  31
BRANCH   2  33
ATOM     33  N   SGN d5702      62.435  44.052  34.233  0.00  0.00    -0.189 NA
ATOM     34  H   SGN d5702      61.796  44.824  34.428  0.00  0.00     0.143 HD
BRANCH  33  35
ATOM     35  S1  SGN d5702      63.646  44.595  33.068  0.00  0.00     0.183 S 
ATOM     36  O1S SGN d5702      64.939  44.081  33.477  0.00  0.00    -0.582 OA
ATOM     37  O2S SGN d5702      63.718  46.019  33.110  0.00  0.00    -0.582 OA
ATOM     38  O3S SGN d5702      63.194  44.090  31.786  0.00  0.00    -0.582 OA
ENDBRANCH  33  35
ENDBRANCH   2  33
BRANCH   6  39
ATOM     39  O1  SGN d5702      60.934  44.185  36.570  0.00  0.00    -0.369 OA
ATOM     40  H   SGN d5702      60.497  45.021  36.795  0.00  0.00     0.212 HD
ENDBRANCH   6  39
TORSDOF 14
ENDMDL
MODEL 44
REMARK VINA RESULT:      -3.6      3.037      4.750
REMARK  14 active torsions:
REMARK  status: ('A' for Active; 'I' for Inactive)
REMARK    1  A    between atoms: C5_1  and  C6_23 
REMARK    2  A    between atoms: S2_5  and  O6_7 
REMARK    3  A    between atoms: O1_6  and  C1_35 
REMARK    4  A    between atoms: O6_7  and  C6_21 
REMARK    5  A    between atoms: O2_9  and  C2_28 
REMARK    6  A    between atoms: O2_9  and  S_13 
REMARK    7  A    between atoms: C3_10  and  O3_20 
REMARK    8  A    between atoms: C1_11  and  O4_12 
REMARK    9  A    between atoms: O4_12  and  C4_19 
REMARK   10  A    between atoms: C2_15  and  N_29 
REMARK   11  A    between atoms: C5_17  and  C6_21 
REMARK   12  A    between atoms: C6_23  and  O61_33 
REMARK   13  A    between atoms: O3_24  and  C3_26 
REMARK   14  A    between atoms: S1_27  and  N_29 
ROOT
ATOM      1  O5  SGN d5702      63.558  39.139  38.490  0.00  0.00    -0.350 OA
ATOM      2  C2  SGN d5702      65.953  39.132  38.320  0.00  0.00     0.160 C 
ATOM      3  C5  SGN d5702      63.492  40.541  38.580  0.00  0.00     0.181 C 
ATOM      4  C4  SGN d5702      64.701  41.152  37.842  0.00  0.00     0.186 C 
ATOM      5  C3  SGN d5702      65.987  40.623  38.531  0.00  0.00     0.173 C 
ATOM      6  C1  SGN d5702      64.743  38.529  39.010  0.00  0.00     0.278 C 
ENDROOT
BRANCH   4   7
ATOM      7  O4  SGN d5702      64.562  42.594  37.960  0.00  0.00    -0.348 OA
BRANCH   7   8
ATOM      8  C1  IDU d1623      64.852  43.548  36.958  0.00  0.00     0.294 C 
ATOM      9  O5  IDU d1623      64.110  43.333  35.715  0.00  0.00    -0.343 OA
ATOM     10  C5  IDU d1623      64.499  44.241  34.624  0.00  0.00     0.224 C 
ATOM     11  C4  IDU d1623      64.218  45.689  35.061  0.00  0.00     0.077 C 
ATOM     12  C3  IDU d1623      64.981  45.994  36.359  0.00  0.00     0.156 C 
ATOM     13  C2  IDU d1623      64.528  44.978  37.419  0.00  0.00     0.228 C 
BRANCH  10  14
ATOM     14  C6  IDU d1623      63.711  43.966  33.372  0.00  0.00     0.170 C 
ATOM     15  O62 IDU d1623      64.117  43.076  32.609  0.00  0.00    -0.648 OA
BRANCH  14  16
ATOM     16  O61 IDU d1623      62.689  44.652  33.167  0.00  0.00    -0.774 OA
ENDBRANCH  14  16
ENDBRANCH  10  14
BRANCH  12  18
ATOM     18  O3  IDU d1623      66.358  45.870  36.132  0.00  0.00    -0.393 OA
ATOM     19  H   IDU d1623      66.725  45.200  36.730  0.00  0.00     0.210 HD
ENDBRANCH  12  18
BRANCH  13  20
ATOM     20  O2  IDU d1623      63.133  45.062  37.595  0.00  0.00    -0.244 OA
BRANCH  20  21
ATOM     21  S   IDU d1623      62.535  45.822  39.032  0.00  0.00     0.252 S 
ATOM     22  O3S IDU d1623      61.974  47.086  38.732  0.00  0.00    -0.572 OA
ATOM     23  O1S IDU d1623      63.629  45.883  39.953  0.00  0.00    -0.572 OA
ATOM     24  O2S IDU d1623      61.461  45.037  39.622  0.00  0.00    -0.572 OA
ENDBRANCH  20  21
ENDBRANCH  13  20
ENDBRANCH   7   8
ENDBRANCH   4   7
BRANCH   3  25
ATOM     25  C6  SGN d5702      62.189  40.962  37.974  0.00  0.00     0.227 C 
BRANCH  25  26
ATOM     26  O6  SGN d5702      62.066  40.117  36.840  0.00  0.00    -0.254 OA
BRANCH  26  27
ATOM     27  S2  SGN d5702      61.394  40.773  35.386  0.00  0.00     0.251 S 
ATOM     28  O4S SGN d5702      60.915  42.102  35.589  0.00  0.00    -0.572 OA
ATOM     29  O5S SGN d5702      60.304  39.937  34.972  0.00  0.00    -0.572 OA
ATOM     30  O6S SGN d5702      62.477  40.796  34.447  0.00  0.00    -0.572 OA
ENDBRANCH  26  27
ENDBRANCH  25  26
ENDBRANCH   3  25
BRANCH   5  31
ATOM     31  O3  SGN d5702      67.124  41.142  37.884  0.00  0.00    -0.391 OA
ATOM     32  H   SGN d5702      67.706  40.413  37.619  0.00  0.00     0.210 HD
ENDBRANCH   5  31
BRANCH   2  33
ATOM     33  N   SGN d5702      67.114  38.526  38.884  0.00  0.00    -0.189 NA
ATOM     34  H   SGN d5702      66.822  37.821  39.562  0.00  0.00     0.143 HD
BRANCH  33  35
ATOM     35  S1  SGN d5702      68.120  37.754  37.655  0.00  0.00     0.183 S 
ATOM     36  O1S SGN d5702      69.448  37.563  38.202  0.00  0.00    -0.582 OA
ATOM     37  O2S SGN d5702      68.237  38.633  36.538  0.00  0.00    -0.582 OA
ATOM     38  O3S SGN d5702      67.438  36.515  37.329  0.00  0.00    -0.582 OA
ENDBRANCH  33  35
ENDBRANCH   2  33
BRANCH   6  39
ATOM     39  O1  SGN d5702      64.794  38.664  40.410  0.00  0.00    -0.369 OA
ATOM     40  H   SGN d5702      64.943  39.594  40.640  0.00  0.00     0.212 HD
ENDBRANCH   6  39
TORSDOF 14
ENDMDL
MODEL 45
REMARK VINA RESULT:      -3.6      4.679      7.833
REMARK  14 active torsions:
REMARK  status: ('A' for Active; 'I' for Inactive)
REMARK    1  A    between atoms: C5_1  and  C6_23 
REMARK    2  A    between atoms: S2_5  and  O6_7 
REMARK    3  A    between atoms: O1_6  and  C1_35 
REMARK    4  A    between atoms: O6_7  and  C6_21 
REMARK    5  A    between atoms: O2_9  and  C2_28 
REMARK    6  A    between atoms: O2_9  and  S_13 
REMARK    7  A    between atoms: C3_10  and  O3_20 
REMARK    8  A    between atoms: C1_11  and  O4_12 
REMARK    9  A    between atoms: O4_12  and  C4_19 
REMARK   10  A    between atoms: C2_15  and  N_29 
REMARK   11  A    between atoms: C5_17  and  C6_21 
REMARK   12  A    between atoms: C6_23  and  O61_33 
REMARK   13  A    between atoms: O3_24  and  C3_26 
REMARK   14  A    between atoms: S1_27  and  N_29 
ROOT
ATOM      1  O5  SGN d5702      62.853  46.502  39.278  0.00  0.00    -0.350 OA
ATOM      2  C2  SGN d5702      61.513  45.829  41.153  0.00  0.00     0.160 C 
ATOM      3  C5  SGN d5702      63.441  45.230  39.145  0.00  0.00     0.181 C 
ATOM      4  C4  SGN d5702      62.459  44.163  39.669  0.00  0.00     0.186 C 
ATOM      5  C3  SGN d5702      62.177  44.478  41.162  0.00  0.00     0.173 C 
ATOM      6  C1  SGN d5702      62.460  46.879  40.601  0.00  0.00     0.278 C 
ENDROOT
BRANCH   4   7
ATOM      7  O4  SGN d5702      63.119  42.880  39.487  0.00  0.00    -0.348 OA
BRANCH   7   8
ATOM      8  C1  IDU d1623      62.547  41.715  38.930  0.00  0.00     0.294 C 
ATOM      9  O5  IDU d1623      62.329  41.805  37.485  0.00  0.00    -0.343 OA
ATOM     10  C5  IDU d1623      61.617  40.649  36.917  0.00  0.00     0.224 C 
ATOM     11  C4  IDU d1623      62.455  39.383  37.159  0.00  0.00     0.077 C 
ATOM     12  C3  IDU d1623      62.711  39.213  38.665  0.00  0.00     0.156 C 
ATOM     13  C2  IDU d1623      63.428  40.477  39.164  0.00  0.00     0.228 C 
BRANCH  10  14
ATOM     14  C6  IDU d1623      61.413  40.803  35.435  0.00  0.00     0.170 C 
ATOM     15  O62 IDU d1623      62.349  41.258  34.759  0.00  0.00    -0.648 OA
BRANCH  14  16
ATOM     16  O61 IDU d1623      60.309  40.465  34.962  0.00  0.00    -0.774 OA
ENDBRANCH  14  16
ENDBRANCH  10  14
BRANCH  12  18
ATOM     18  O3  IDU d1623      61.490  39.058  39.332  0.00  0.00    -0.393 OA
ATOM     19  H   IDU d1623      61.641  38.622  40.186  0.00  0.00     0.210 HD
ENDBRANCH  12  18
BRANCH  13  20
ATOM     20  O2  IDU d1623      64.623  40.664  38.442  0.00  0.00    -0.244 OA
BRANCH  20  21
ATOM     21  S   IDU d1623      66.104  40.785  39.332  0.00  0.00     0.252 S 
ATOM     22  O3S IDU d1623      66.581  42.118  39.328  0.00  0.00    -0.572 OA
ATOM     23  O1S IDU d1623      67.015  39.848  38.747  0.00  0.00    -0.572 OA
ATOM     24  O2S IDU d1623      65.898  40.438  40.730  0.00  0.00    -0.572 OA
ENDBRANCH  20  21
ENDBRANCH  13  20
ENDBRANCH   7   8
ENDBRANCH   4   7
BRANCH   3  25
ATOM     25  C6  SGN d5702      63.760  45.042  37.694  0.00  0.00     0.227 C 
BRANCH  25  26
ATOM     26  O6  SGN d5702      64.539  46.186  37.378  0.00  0.00    -0.254 OA
BRANCH  26  27
ATOM     27  S2  SGN d5702      66.186  45.960  36.895  0.00  0.00     0.251 S 
ATOM     28  O4S SGN d5702      66.424  46.498  35.595  0.00  0.00    -0.572 OA
ATOM     29  O5S SGN d5702      66.466  44.552  36.881  0.00  0.00    -0.572 OA
ATOM     30  O6S SGN d5702      66.964  46.682  37.859  0.00  0.00    -0.572 OA
ENDBRANCH  26  27
ENDBRANCH  25  26
ENDBRANCH   3  25
BRANCH   5  31
ATOM     31  O3  SGN d5702      61.272  43.536  41.686  0.00  0.00    -0.391 OA
ATOM     32  H   SGN d5702      60.438  43.978  41.910  0.00  0.00     0.210 HD
ENDBRANCH   5  31
BRANCH   2  33
ATOM     33  N   SGN d5702      61.168  46.219  42.481  0.00  0.00    -0.189 NA
ATOM     34  H   SGN d5702      61.587  47.129  42.676  0.00  0.00     0.143 HD
BRANCH  33  35
ATOM     35  S1  SGN d5702      59.419  46.338  42.701  0.00  0.00     0.183 S 
ATOM     36  O1S SGN d5702      58.860  47.041  41.563  0.00  0.00    -0.582 OA
ATOM     37  O2S SGN d5702      59.155  47.123  43.863  0.00  0.00    -0.582 OA
ATOM     38  O3S SGN d5702      58.958  44.969  42.828  0.00  0.00    -0.582 OA
ENDBRANCH  33  35
ENDBRANCH   2  33
BRANCH   6  39
ATOM     39  O1  SGN d5702      63.591  47.071  41.416  0.00  0.00    -0.369 OA
ATOM     40  H   SGN d5702      64.275  47.541  40.914  0.00  0.00     0.212 HD
ENDBRANCH   6  39
TORSDOF 14
ENDMDL
MODEL 46
REMARK VINA RESULT:      -3.6      3.335      6.466
REMARK  14 active torsions:
REMARK  status: ('A' for Active; 'I' for Inactive)
REMARK    1  A    between atoms: C5_1  and  C6_23 
REMARK    2  A    between atoms: S2_5  and  O6_7 
REMARK    3  A    between atoms: O1_6  and  C1_35 
REMARK    4  A    between atoms: O6_7  and  C6_21 
REMARK    5  A    between atoms: O2_9  and  C2_28 
REMARK    6  A    between atoms: O2_9  and  S_13 
REMARK    7  A    between atoms: C3_10  and  O3_20 
REMARK    8  A    between atoms: C1_11  and  O4_12 
REMARK    9  A    between atoms: O4_12  and  C4_19 
REMARK   10  A    between atoms: C2_15  and  N_29 
REMARK   11  A    between atoms: C5_17  and  C6_21 
REMARK   12  A    between atoms: C6_23  and  O61_33 
REMARK   13  A    between atoms: O3_24  and  C3_26 
REMARK   14  A    between atoms: S1_27  and  N_29 
ROOT
ATOM      1  O5  SGN d5702      63.694  37.076  38.332  0.00  0.00    -0.350 OA
ATOM      2  C2  SGN d5702      62.484  37.484  40.365  0.00  0.00     0.160 C 
ATOM      3  C5  SGN d5702      63.380  38.340  37.800  0.00  0.00     0.181 C 
ATOM      4  C4  SGN d5702      63.169  39.336  38.958  0.00  0.00     0.186 C 
ATOM      5  C3  SGN d5702      61.998  38.805  39.828  0.00  0.00     0.173 C 
ATOM      6  C1  SGN d5702      62.732  36.511  39.227  0.00  0.00     0.278 C 
ENDROOT
BRANCH   4   7
ATOM      7  O4  SGN d5702      62.866  40.618  38.342  0.00  0.00    -0.348 OA
BRANCH   7   8
ATOM      8  C1  IDU d1623      63.231  41.891  38.833  0.00  0.00     0.294 C 
ATOM      9  O5  IDU d1623      64.679  42.089  38.922  0.00  0.00    -0.343 OA
ATOM     10  C5  IDU d1623      65.068  43.361  39.552  0.00  0.00     0.224 C 
ATOM     11  C4  IDU d1623      64.515  44.521  38.708  0.00  0.00     0.077 C 
ATOM     12  C3  IDU d1623      62.989  44.388  38.585  0.00  0.00     0.156 C 
ATOM     13  C2  IDU d1623      62.688  43.023  37.947  0.00  0.00     0.228 C 
BRANCH  10  14
ATOM     14  C6  IDU d1623      66.564  43.503  39.624  0.00  0.00     0.170 C 
ATOM     15  O62 IDU d1623      67.255  42.818  38.855  0.00  0.00    -0.648 OA
BRANCH  14  16
ATOM     16  O61 IDU d1623      67.031  44.305  40.459  0.00  0.00    -0.774 OA
ENDBRANCH  14  16
ENDBRANCH  10  14
BRANCH  12  18
ATOM     18  O3  IDU d1623      62.409  44.463  39.857  0.00  0.00    -0.393 OA
ATOM     19  H   IDU d1623      63.029  44.113  40.516  0.00  0.00     0.210 HD
ENDBRANCH  12  18
BRANCH  13  20
ATOM     20  O2  IDU d1623      63.329  42.929  36.697  0.00  0.00    -0.244 OA
BRANCH  20  21
ATOM     21  S   IDU d1623      62.341  42.824  35.278  0.00  0.00     0.252 S 
ATOM     22  O3S IDU d1623      62.505  43.973  34.469  0.00  0.00    -0.572 OA
ATOM     23  O1S IDU d1623      60.996  42.624  35.725  0.00  0.00    -0.572 OA
ATOM     24  O2S IDU d1623      62.740  41.694  34.453  0.00  0.00    -0.572 OA
ENDBRANCH  20  21
ENDBRANCH  13  20
ENDBRANCH   7   8
ENDBRANCH   4   7
BRANCH   3  25
ATOM     25  C6  SGN d5702      64.515  38.740  36.910  0.00  0.00     0.227 C 
BRANCH  25  26
ATOM     26  O6  SGN d5702      65.469  37.708  37.111  0.00  0.00    -0.254 OA
BRANCH  26  27
ATOM     27  S2  SGN d5702      66.278  37.046  35.732  0.00  0.00     0.251 S 
ATOM     28  O4S SGN d5702      65.666  35.829  35.305  0.00  0.00    -0.572 OA
ATOM     29  O5S SGN d5702      67.644  36.787  36.086  0.00  0.00    -0.572 OA
ATOM     30  O6S SGN d5702      66.138  38.034  34.703  0.00  0.00    -0.572 OA
ENDBRANCH  26  27
ENDBRANCH  25  26
ENDBRANCH   3  25
BRANCH   5  31
ATOM     31  O3  SGN d5702      61.774  39.675  40.910  0.00  0.00    -0.391 OA
ATOM     32  H   SGN d5702      61.070  40.302  40.681  0.00  0.00     0.210 HD
ENDBRANCH   5  31
BRANCH   2  33
ATOM     33  N   SGN d5702      61.498  36.905  41.217  0.00  0.00    -0.189 NA
ATOM     34  H   SGN d5702      61.242  35.988  40.849  0.00  0.00     0.143 HD
BRANCH  33  35
ATOM     35  S1  SGN d5702      62.087  36.710  42.871  0.00  0.00     0.183 S 
ATOM     36  O1S SGN d5702      63.452  36.224  42.818  0.00  0.00    -0.582 OA
ATOM     37  O2S SGN d5702      61.302  35.715  43.524  0.00  0.00    -0.582 OA
ATOM     38  O3S SGN d5702      61.957  38.021  43.477  0.00  0.00    -0.582 OA
ENDBRANCH  33  35
ENDBRANCH   2  33
BRANCH   6  39
ATOM     39  O1  SGN d5702      61.553  36.174  38.535  0.00  0.00    -0.369 OA
ATOM     40  H   SGN d5702      61.413  36.802  37.810  0.00  0.00     0.212 HD
ENDBRANCH   6  39
TORSDOF 14
ENDMDL
MODEL 47
REMARK VINA RESULT:      -3.6      2.966      8.194
REMARK  14 active torsions:
REMARK  status: ('A' for Active; 'I' for Inactive)
REMARK    1  A    between atoms: C5_1  and  C6_23 
REMARK    2  A    between atoms: S2_5  and  O6_7 
REMARK    3  A    between atoms: O1_6  and  C1_35 
REMARK    4  A    between atoms: O6_7  and  C6_21 
REMARK    5  A    between atoms: O2_9  and  C2_28 
REMARK    6  A    between atoms: O2_9  and  S_13 
REMARK    7  A    between atoms: C3_10  and  O3_20 
REMARK    8  A    between atoms: C1_11  and  O4_12 
REMARK    9  A    between atoms: O4_12  and  C4_19 
REMARK   10  A    between atoms: C2_15  and  N_29 
REMARK   11  A    between atoms: C5_17  and  C6_21 
REMARK   12  A    between atoms: C6_23  and  O61_33 
REMARK   13  A    between atoms: O3_24  and  C3_26 
REMARK   14  A    between atoms: S1_27  and  N_29 
ROOT
ATOM      1  O5  SGN d5702      64.398  40.253  35.701  0.00  0.00    -0.350 OA
ATOM      2  C2  SGN d5702      62.449  41.004  36.885  0.00  0.00     0.160 C 
ATOM      3  C5  SGN d5702      64.788  39.385  36.738  0.00  0.00     0.181 C 
ATOM      4  C4  SGN d5702      63.534  38.929  37.512  0.00  0.00     0.186 C 
ATOM      5  C3  SGN d5702      62.852  40.197  38.091  0.00  0.00     0.173 C 
ATOM      6  C1  SGN d5702      63.675  41.423  36.096  0.00  0.00     0.278 C 
ENDROOT
BRANCH   4   7
ATOM      7  O4  SGN d5702      64.005  38.028  38.552  0.00  0.00    -0.348 OA
BRANCH   7   8
ATOM      8  C1  IDU d1623      63.415  36.800  38.925  0.00  0.00     0.294 C 
ATOM      9  O5  IDU d1623      63.339  35.832  37.830  0.00  0.00    -0.343 OA
ATOM     10  C5  IDU d1623      62.612  34.599  38.174  0.00  0.00     0.224 C 
ATOM     11  C4  IDU d1623      63.344  33.899  39.331  0.00  0.00     0.077 C 
ATOM     12  C3  IDU d1623      63.448  34.855  40.530  0.00  0.00     0.156 C 
ATOM     13  C2  IDU d1623      64.192  36.115  40.061  0.00  0.00     0.228 C 
BRANCH  10  14
ATOM     14  C6  IDU d1623      62.558  33.649  37.008  0.00  0.00     0.170 C 
ATOM     15  O62 IDU d1623      63.536  33.600  36.247  0.00  0.00    -0.648 OA
BRANCH  14  16
ATOM     16  O61 IDU d1623      61.527  32.960  36.869  0.00  0.00    -0.774 OA
ENDBRANCH  14  16
ENDBRANCH  10  14
BRANCH  12  18
ATOM     18  O3  IDU d1623      62.163  35.192  40.972  0.00  0.00    -0.393 OA
ATOM     19  H   IDU d1623      61.944  36.089  40.674  0.00  0.00     0.210 HD
ENDBRANCH  12  18
BRANCH  13  20
ATOM     20  O2  IDU d1623      65.458  35.761  39.557  0.00  0.00    -0.244 OA
BRANCH  20  21
ATOM     21  S   IDU d1623      66.841  36.627  40.137  0.00  0.00     0.252 S 
ATOM     22  O3S IDU d1623      67.292  37.555  39.169  0.00  0.00    -0.572 OA
ATOM     23  O1S IDU d1623      67.823  35.647  40.494  0.00  0.00    -0.572 OA
ATOM     24  O2S IDU d1623      66.503  37.411  41.316  0.00  0.00    -0.572 OA
ENDBRANCH  20  21
ENDBRANCH  13  20
ENDBRANCH   7   8
ENDBRANCH   4   7
BRANCH   3  25
ATOM     25  C6  SGN d5702      65.510  38.238  36.105  0.00  0.00     0.227 C 
BRANCH  25  26
ATOM     26  O6  SGN d5702      66.343  38.865  35.142  0.00  0.00    -0.254 OA
BRANCH  26  27
ATOM     27  S2  SGN d5702      66.443  38.175  33.557  0.00  0.00     0.251 S 
ATOM     28  O4S SGN d5702      66.165  36.776  33.581  0.00  0.00    -0.572 OA
ATOM     29  O5S SGN d5702      67.772  38.382  33.055  0.00  0.00    -0.572 OA
ATOM     30  O6S SGN d5702      65.437  38.847  32.789  0.00  0.00    -0.572 OA
ENDBRANCH  26  27
ENDBRANCH  25  26
ENDBRANCH   3  25
BRANCH   5  31
ATOM     31  O3  SGN d5702      61.691  39.835  38.798  0.00  0.00    -0.391 OA
ATOM     32  H   SGN d5702      60.915  40.230  38.371  0.00  0.00     0.210 HD
ENDBRANCH   5  31
BRANCH   2  33
ATOM     33  N   SGN d5702      61.772  42.192  37.289  0.00  0.00    -0.189 NA
ATOM     34  H   SGN d5702      62.465  42.917  37.479  0.00  0.00     0.143 HD
BRANCH  33  35
ATOM     35  S1  SGN d5702      60.663  42.776  36.045  0.00  0.00     0.183 S 
ATOM     36  O1S SGN d5702      61.360  43.749  35.228  0.00  0.00    -0.582 OA
ATOM     37  O2S SGN d5702      59.575  43.447  36.678  0.00  0.00    -0.582 OA
ATOM     38  O3S SGN d5702      60.249  41.591  35.318  0.00  0.00    -0.582 OA
ENDBRANCH  33  35
ENDBRANCH   2  33
BRANCH   6  39
ATOM     39  O1  SGN d5702      64.510  42.299  36.816  0.00  0.00    -0.369 OA
ATOM     40  H   SGN d5702      65.127  42.731  36.205  0.00  0.00     0.212 HD
ENDBRANCH   6  39
TORSDOF 14
ENDMDL
MODEL 48
REMARK VINA RESULT:      -3.6      3.800      8.376
REMARK  14 active torsions:
REMARK  status: ('A' for Active; 'I' for Inactive)
REMARK    1  A    between atoms: C5_1  and  C6_23 
REMARK    2  A    between atoms: S2_5  and  O6_7 
REMARK    3  A    between atoms: O1_6  and  C1_35 
REMARK    4  A    between atoms: O6_7  and  C6_21 
REMARK    5  A    between atoms: O2_9  and  C2_28 
REMARK    6  A    between atoms: O2_9  and  S_13 
REMARK    7  A    between atoms: C3_10  and  O3_20 
REMARK    8  A    between atoms: C1_11  and  O4_12 
REMARK    9  A    between atoms: O4_12  and  C4_19 
REMARK   10  A    between atoms: C2_15  and  N_29 
REMARK   11  A    between atoms: C5_17  and  C6_21 
REMARK   12  A    between atoms: C6_23  and  O61_33 
REMARK   13  A    between atoms: O3_24  and  C3_26 
REMARK   14  A    between atoms: S1_27  and  N_29 
ROOT
ATOM      1  O5  SGN d5702      65.099  41.419  37.495  0.00  0.00    -0.350 OA
ATOM      2  C2  SGN d5702      62.734  41.807  37.356  0.00  0.00     0.160 C 
ATOM      3  C5  SGN d5702      64.941  40.263  38.281  0.00  0.00     0.181 C 
ATOM      4  C4  SGN d5702      63.579  39.616  37.959  0.00  0.00     0.186 C 
ATOM      5  C3  SGN d5702      62.475  40.656  38.291  0.00  0.00     0.173 C 
ATOM      6  C1  SGN d5702      64.091  42.424  37.641  0.00  0.00     0.278 C 
ENDROOT
BRANCH   4   7
ATOM      7  O4  SGN d5702      63.488  38.426  38.788  0.00  0.00    -0.348 OA
BRANCH   7   8
ATOM      8  C1  IDU d1623      63.058  37.146  38.372  0.00  0.00     0.294 C 
ATOM      9  O5  IDU d1623      64.082  36.396  37.642  0.00  0.00    -0.343 OA
ATOM     10  C5  IDU d1623      63.604  35.116  37.094  0.00  0.00     0.224 C 
ATOM     11  C4  IDU d1623      63.145  34.220  38.256  0.00  0.00     0.077 C 
ATOM     12  C3  IDU d1623      62.053  34.939  39.062  0.00  0.00     0.156 C 
ATOM     13  C2  IDU d1623      62.639  36.268  39.563  0.00  0.00     0.228 C 
BRANCH  10  14
ATOM     14  C6  IDU d1623      64.694  34.397  36.347  0.00  0.00     0.170 C 
ATOM     15  O62 IDU d1623      64.508  34.135  35.148  0.00  0.00    -0.648 OA
BRANCH  14  16
ATOM     16  O61 IDU d1623      65.731  34.101  36.975  0.00  0.00    -0.774 OA
ENDBRANCH  14  16
ENDBRANCH  10  14
BRANCH  12  18
ATOM     18  O3  IDU d1623      60.946  35.181  38.239  0.00  0.00    -0.393 OA
ATOM     19  H   IDU d1623      60.668  34.352  37.820  0.00  0.00     0.210 HD
ENDBRANCH  12  18
BRANCH  13  20
ATOM     20  O2  IDU d1623      63.790  36.021  40.335  0.00  0.00    -0.244 OA
BRANCH  20  21
ATOM     21  S   IDU d1623      63.878  36.721  41.917  0.00  0.00     0.252 S 
ATOM     22  O3S IDU d1623      62.638  37.300  42.277  0.00  0.00    -0.572 OA
ATOM     23  O1S IDU d1623      64.963  37.655  41.895  0.00  0.00    -0.572 OA
ATOM     24  O2S IDU d1623      64.150  35.702  42.919  0.00  0.00    -0.572 OA
ENDBRANCH  20  21
ENDBRANCH  13  20
ENDBRANCH   7   8
ENDBRANCH   4   7
BRANCH   3  25
ATOM     25  C6  SGN d5702      66.087  39.354  37.966  0.00  0.00     0.227 C 
BRANCH  25  26
ATOM     26  O6  SGN d5702      66.695  39.140  39.231  0.00  0.00    -0.254 OA
BRANCH  26  27
ATOM     27  S2  SGN d5702      67.715  37.756  39.437  0.00  0.00     0.251 S 
ATOM     28  O4S SGN d5702      68.771  37.742  38.477  0.00  0.00    -0.572 OA
ATOM     29  O5S SGN d5702      66.916  36.575  39.277  0.00  0.00    -0.572 OA
ATOM     30  O6S SGN d5702      68.270  37.890  40.752  0.00  0.00    -0.572 OA
ENDBRANCH  26  27
ENDBRANCH  25  26
ENDBRANCH   3  25
BRANCH   5  31
ATOM     31  O3  SGN d5702      61.208  40.117  38.000  0.00  0.00    -0.391 OA
ATOM     32  H   SGN d5702      61.237  39.152  38.096  0.00  0.00     0.210 HD
ENDBRANCH   5  31
BRANCH   2  33
ATOM     33  N   SGN d5702      61.754  42.826  37.541  0.00  0.00    -0.189 NA
ATOM     34  H   SGN d5702      62.225  43.697  37.786  0.00  0.00     0.143 HD
BRANCH  33  35
ATOM     35  S1  SGN d5702      60.790  43.089  36.084  0.00  0.00     0.183 S 
ATOM     36  O1S SGN d5702      60.413  41.798  35.544  0.00  0.00    -0.582 OA
ATOM     37  O2S SGN d5702      61.601  43.742  35.109  0.00  0.00    -0.582 OA
ATOM     38  O3S SGN d5702      59.664  43.895  36.514  0.00  0.00    -0.582 OA
ENDBRANCH  33  35
ENDBRANCH   2  33
BRANCH   6  39
ATOM     39  O1  SGN d5702      64.162  43.013  38.918  0.00  0.00    -0.369 OA
ATOM     40  H   SGN d5702      64.684  42.445  39.507  0.00  0.00     0.212 HD
ENDBRANCH   6  39
TORSDOF 14
ENDMDL
MODEL 49
REMARK VINA RESULT:      -3.6      1.489      1.926
REMARK  14 active torsions:
REMARK  status: ('A' for Active; 'I' for Inactive)
REMARK    1  A    between atoms: C5_1  and  C6_23 
REMARK    2  A    between atoms: S2_5  and  O6_7 
REMARK    3  A    between atoms: O1_6  and  C1_35 
REMARK    4  A    between atoms: O6_7  and  C6_21 
REMARK    5  A    between atoms: O2_9  and  C2_28 
REMARK    6  A    between atoms: O2_9  and  S_13 
REMARK    7  A    between atoms: C3_10  and  O3_20 
REMARK    8  A    between atoms: C1_11  and  O4_12 
REMARK    9  A    between atoms: O4_12  and  C4_19 
REMARK   10  A    between atoms: C2_15  and  N_29 
REMARK   11  A    between atoms: C5_17  and  C6_21 
REMARK   12  A    between atoms: C6_23  and  O61_33 
REMARK   13  A    between atoms: O3_24  and  C3_26 
REMARK   14  A    between atoms: S1_27  and  N_29 
ROOT
ATOM      1  O5  SGN d5702      61.142  39.348  37.316  0.00  0.00    -0.350 OA
ATOM      2  C2  SGN d5702      63.294  38.457  37.896  0.00  0.00     0.160 C 
ATOM      3  C5  SGN d5702      61.694  40.474  36.677  0.00  0.00     0.181 C 
ATOM      4  C4  SGN d5702      63.091  40.111  36.135  0.00  0.00     0.186 C 
ATOM      5  C3  SGN d5702      63.968  39.685  37.343  0.00  0.00     0.173 C 
ATOM      6  C1  SGN d5702      61.903  38.798  38.395  0.00  0.00     0.278 C 
ENDROOT
BRANCH   4   7
ATOM      7  O4  SGN d5702      63.594  41.306  35.478  0.00  0.00    -0.348 OA
BRANCH   7   8
ATOM      8  C1  IDU d1623      64.457  41.347  34.360  0.00  0.00     0.294 C 
ATOM      9  O5  IDU d1623      63.798  40.999  33.100  0.00  0.00    -0.343 OA
ATOM     10  C5  IDU d1623      64.715  40.914  31.952  0.00  0.00     0.224 C 
ATOM     11  C4  IDU d1623      65.374  42.286  31.741  0.00  0.00     0.077 C 
ATOM     12  C3  IDU d1623      66.104  42.712  33.024  0.00  0.00     0.156 C 
ATOM     13  C2  IDU d1623      65.071  42.742  34.162  0.00  0.00     0.228 C 
BRANCH  10  14
ATOM     14  C6  IDU d1623      63.983  40.543  30.691  0.00  0.00     0.170 C 
ATOM     15  O62 IDU d1623      63.614  41.458  29.938  0.00  0.00    -0.648 OA
BRANCH  14  16
ATOM     16  O61 IDU d1623      63.785  39.331  30.469  0.00  0.00    -0.774 OA
ENDBRANCH  14  16
ENDBRANCH  10  14
BRANCH  12  18
ATOM     18  O3  IDU d1623      67.114  41.787  33.316  0.00  0.00    -0.393 OA
ATOM     19  H   IDU d1623      66.714  40.957  33.620  0.00  0.00     0.210 HD
ENDBRANCH  12  18
BRANCH  13  20
ATOM     20  O2  IDU d1623      64.024  43.624  33.832  0.00  0.00    -0.244 OA
BRANCH  20  21
ATOM     21  S   IDU d1623      64.279  45.321  34.071  0.00  0.00     0.252 S 
ATOM     22  O3S IDU d1623      63.754  45.734  35.319  0.00  0.00    -0.572 OA
ATOM     23  O1S IDU d1623      63.689  45.988  32.950  0.00  0.00    -0.572 OA
ATOM     24  O2S IDU d1623      65.700  45.629  34.113  0.00  0.00    -0.572 OA
ENDBRANCH  20  21
ENDBRANCH  13  20
ENDBRANCH   7   8
ENDBRANCH   4   7
BRANCH   3  25
ATOM     25  C6  SGN d5702      60.749  40.870  35.586  0.00  0.00     0.227 C 
BRANCH  25  26
ATOM     26  O6  SGN d5702      59.965  41.891  36.186  0.00  0.00    -0.254 OA
BRANCH  26  27
ATOM     27  S2  SGN d5702      60.598  43.501  36.235  0.00  0.00     0.251 S 
ATOM     28  O4S SGN d5702      61.243  43.844  35.009  0.00  0.00    -0.572 OA
ATOM     29  O5S SGN d5702      61.549  43.583  37.307  0.00  0.00    -0.572 OA
ATOM     30  O6S SGN d5702      59.457  44.349  36.425  0.00  0.00    -0.572 OA
ENDBRANCH  26  27
ENDBRANCH  25  26
ENDBRANCH   3  25
BRANCH   5  31
ATOM     31  O3  SGN d5702      65.255  39.330  36.898  0.00  0.00    -0.391 OA
ATOM     32  H   SGN d5702      65.262  38.394  36.645  0.00  0.00     0.210 HD
ENDBRANCH   5  31
BRANCH   2  33
ATOM     33  N   SGN d5702      64.033  37.944  39.002  0.00  0.00    -0.189 NA
ATOM     34  H   SGN d5702      64.732  37.286  38.656  0.00  0.00     0.143 HD
BRANCH  33  35
ATOM     35  S1  SGN d5702      64.852  39.225  39.902  0.00  0.00     0.183 S 
ATOM     36  O1S SGN d5702      64.370  39.206  41.268  0.00  0.00    -0.582 OA
ATOM     37  O2S SGN d5702      64.493  40.484  39.337  0.00  0.00    -0.582 OA
ATOM     38  O3S SGN d5702      66.267  38.932  39.776  0.00  0.00    -0.582 OA
ENDBRANCH  33  35
ENDBRANCH   2  33
BRANCH   6  39
ATOM     39  O1  SGN d5702      61.921  39.686  39.488  0.00  0.00    -0.369 OA
ATOM     40  H   SGN d5702      61.760  39.192  40.308  0.00  0.00     0.212 HD
ENDBRANCH   6  39
TORSDOF 14
ENDMDL
MODEL 50
REMARK VINA RESULT:      -3.6      2.895      6.178
REMARK  14 active torsions:
REMARK  status: ('A' for Active; 'I' for Inactive)
REMARK    1  A    between atoms: C5_1  and  C6_23 
REMARK    2  A    between atoms: S2_5  and  O6_7 
REMARK    3  A    between atoms: O1_6  and  C1_35 
REMARK    4  A    between atoms: O6_7  and  C6_21 
REMARK    5  A    between atoms: O2_9  and  C2_28 
REMARK    6  A    between atoms: O2_9  and  S_13 
REMARK    7  A    between atoms: C3_10  and  O3_20 
REMARK    8  A    between atoms: C1_11  and  O4_12 
REMARK    9  A    between atoms: O4_12  and  C4_19 
REMARK   10  A    between atoms: C2_15  and  N_29 
REMARK   11  A    between atoms: C5_17  and  C6_21 
REMARK   12  A    between atoms: C6_23  and  O61_33 
REMARK   13  A    between atoms: O3_24  and  C3_26 
REMARK   14  A    between atoms: S1_27  and  N_29 
ROOT
ATOM      1  O5  SGN d5702      63.055  40.108  38.131  0.00  0.00    -0.350 OA
ATOM      2  C2  SGN d5702      61.813  41.547  36.665  0.00  0.00     0.160 C 
ATOM      3  C5  SGN d5702      63.756  39.504  37.071  0.00  0.00     0.181 C 
ATOM      4  C4  SGN d5702      63.866  40.506  35.904  0.00  0.00     0.186 C 
ATOM      5  C3  SGN d5702      62.424  40.875  35.463  0.00  0.00     0.173 C 
ATOM      6  C1  SGN d5702      61.738  40.578  37.830  0.00  0.00     0.278 C 
ENDROOT
BRANCH   4   7
ATOM      7  O4  SGN d5702      64.610  39.828  34.855  0.00  0.00    -0.348 OA
BRANCH   7   8
ATOM      8  C1  IDU d1623      65.701  40.354  34.127  0.00  0.00     0.294 C 
ATOM      9  O5  IDU d1623      66.893  40.584  34.946  0.00  0.00    -0.343 OA
ATOM     10  C5  IDU d1623      67.990  41.250  34.226  0.00  0.00     0.224 C 
ATOM     11  C4  IDU d1623      68.426  40.358  33.051  0.00  0.00     0.077 C 
ATOM     12  C3  IDU d1623      67.223  40.087  32.135  0.00  0.00     0.156 C 
ATOM     13  C2  IDU d1623      66.128  39.421  32.983  0.00  0.00     0.228 C 
BRANCH  10  14
ATOM     14  C6  IDU d1623      69.181  41.467  35.119  0.00  0.00     0.170 C 
ATOM     15  O62 IDU d1623      69.627  42.620  35.230  0.00  0.00    -0.648 OA
BRANCH  14  16
ATOM     16  O61 IDU d1623      69.659  40.472  35.701  0.00  0.00    -0.774 OA
ENDBRANCH  14  16
ENDBRANCH  10  14
BRANCH  12  18
ATOM     18  O3  IDU d1623      66.754  41.297  31.609  0.00  0.00    -0.393 OA
ATOM     19  H   IDU d1623      65.793  41.244  31.484  0.00  0.00     0.210 HD
ENDBRANCH  12  18
BRANCH  13  20
ATOM     20  O2  IDU d1623      66.628  38.239  33.563  0.00  0.00    -0.244 OA
BRANCH  20  21
ATOM     21  S   IDU d1623      66.242  36.730  32.804  0.00  0.00     0.252 S 
ATOM     22  O3S IDU d1623      65.337  36.926  31.734  0.00  0.00    -0.572 OA
ATOM     23  O1S IDU d1623      65.739  35.869  33.831  0.00  0.00    -0.572 OA
ATOM     24  O2S IDU d1623      67.430  36.127  32.218  0.00  0.00    -0.572 OA
ENDBRANCH  20  21
ENDBRANCH  13  20
ENDBRANCH   7   8
ENDBRANCH   4   7
BRANCH   3  25
ATOM     25  C6  SGN d5702      65.097  39.102  37.600  0.00  0.00     0.227 C 
BRANCH  25  26
ATOM     26  O6  SGN d5702      65.251  39.912  38.755  0.00  0.00    -0.254 OA
BRANCH  26  27
ATOM     27  S2  SGN d5702      66.596  40.998  38.832  0.00  0.00     0.251 S 
ATOM     28  O4S SGN d5702      67.813  40.345  38.471  0.00  0.00    -0.572 OA
ATOM     29  O5S SGN d5702      66.707  41.490  40.176  0.00  0.00    -0.572 OA
ATOM     30  O6S SGN d5702      66.306  42.027  37.876  0.00  0.00    -0.572 OA
ENDBRANCH  26  27
ENDBRANCH  25  26
ENDBRANCH   3  25
BRANCH   5  31
ATOM     31  O3  SGN d5702      62.470  41.802  34.405  0.00  0.00    -0.391 OA
ATOM     32  H   SGN d5702      63.143  41.526  33.763  0.00  0.00     0.210 HD
ENDBRANCH   5  31
BRANCH   2  33
ATOM     33  N   SGN d5702      60.483  41.970  36.372  0.00  0.00    -0.189 NA
ATOM     34  H   SGN d5702      59.872  41.690  37.139  0.00  0.00     0.143 HD
BRANCH  33  35
ATOM     35  S1  SGN d5702      60.376  43.721  36.168  0.00  0.00     0.183 S 
ATOM     36  O1S SGN d5702      59.524  44.254  37.212  0.00  0.00    -0.582 OA
ATOM     37  O2S SGN d5702      59.749  44.000  34.917  0.00  0.00    -0.582 OA
ATOM     38  O3S SGN d5702      61.746  44.196  36.230  0.00  0.00    -0.582 OA
ENDBRANCH  33  35
ENDBRANCH   2  33
BRANCH   6  39
ATOM     39  O1  SGN d5702      60.872  39.496  37.580  0.00  0.00    -0.369 OA
ATOM     40  H   SGN d5702      61.298  38.877  36.967  0.00  0.00     0.212 HD
ENDBRANCH   6  39
TORSDOF 14
ENDMDL
MODEL 51
REMARK VINA RESULT:      -3.6      3.784      5.887
REMARK  14 active torsions:
REMARK  status: ('A' for Active; 'I' for Inactive)
REMARK    1  A    between atoms: C5_1  and  C6_23 
REMARK    2  A    between atoms: S2_5  and  O6_7 
REMARK    3  A    between atoms: O1_6  and  C1_35 
REMARK    4  A    between atoms: O6_7  and  C6_21 
REMARK    5  A    between atoms: O2_9  and  C2_28 
REMARK    6  A    between atoms: O2_9  and  S_13 
REMARK    7  A    between atoms: C3_10  and  O3_20 
REMARK    8  A    between atoms: C1_11  and  O4_12 
REMARK    9  A    between atoms: O4_12  and  C4_19 
REMARK   10  A    between atoms: C2_15  and  N_29 
REMARK   11  A    between atoms: C5_17  and  C6_21 
REMARK   12  A    between atoms: C6_23  and  O61_33 
REMARK   13  A    between atoms: O3_24  and  C3_26 
REMARK   14  A    between atoms: S1_27  and  N_29 
ROOT
ATOM      1  O5  SGN d5702      63.534  38.885  37.712  0.00  0.00    -0.350 OA
ATOM      2  C2  SGN d5702      62.454  39.133  39.842  0.00  0.00     0.160 C 
ATOM      3  C5  SGN d5702      63.603  40.274  37.499  0.00  0.00     0.181 C 
ATOM      4  C4  SGN d5702      63.665  40.991  38.862  0.00  0.00     0.186 C 
ATOM      5  C3  SGN d5702      62.375  40.624  39.645  0.00  0.00     0.173 C 
ATOM      6  C1  SGN d5702      62.435  38.421  38.501  0.00  0.00     0.278 C 
ENDROOT
BRANCH   4   7
ATOM      7  O4  SGN d5702      63.750  42.413  38.570  0.00  0.00    -0.348 OA
BRANCH   7   8
ATOM      8  C1  IDU d1623      64.670  43.329  39.127  0.00  0.00     0.294 C 
ATOM      9  O5  IDU d1623      66.063  43.044  38.777  0.00  0.00    -0.343 OA
ATOM     10  C5  IDU d1623      67.037  43.914  39.455  0.00  0.00     0.224 C 
ATOM     11  C4  IDU d1623      66.769  45.372  39.047  0.00  0.00     0.077 C 
ATOM     12  C3  IDU d1623      65.322  45.749  39.402  0.00  0.00     0.156 C 
ATOM     13  C2  IDU d1623      64.390  44.770  38.672  0.00  0.00     0.228 C 
BRANCH  10  14
ATOM     14  C6  IDU d1623      68.448  43.568  39.064  0.00  0.00     0.170 C 
ATOM     15  O62 IDU d1623      68.709  43.450  37.857  0.00  0.00    -0.648 OA
BRANCH  14  16
ATOM     16  O61 IDU d1623      69.283  43.416  39.979  0.00  0.00    -0.774 OA
ENDBRANCH  14  16
ENDBRANCH  10  14
BRANCH  12  18
ATOM     18  O3  IDU d1623      65.138  45.646  40.787  0.00  0.00    -0.393 OA
ATOM     19  H   IDU d1623      65.512  44.808  41.101  0.00  0.00     0.210 HD
ENDBRANCH  12  18
BRANCH  13  20
ATOM     20  O2  IDU d1623      64.627  44.831  37.285  0.00  0.00    -0.244 OA
BRANCH  20  21
ATOM     21  S   IDU d1623      63.354  45.411  36.263  0.00  0.00     0.252 S 
ATOM     22  O3S IDU d1623      63.878  45.907  35.046  0.00  0.00    -0.572 OA
ATOM     23  O1S IDU d1623      62.633  46.391  37.019  0.00  0.00    -0.572 OA
ATOM     24  O2S IDU d1623      62.449  44.331  35.900  0.00  0.00    -0.572 OA
ENDBRANCH  20  21
ENDBRANCH  13  20
ENDBRANCH   7   8
ENDBRANCH   4   7
BRANCH   3  25
ATOM     25  C6  SGN d5702      64.821  40.533  36.668  0.00  0.00     0.227 C 
BRANCH  25  26
ATOM     26  O6  SGN d5702      64.468  40.012  35.395  0.00  0.00    -0.254 OA
BRANCH  26  27
ATOM     27  S2  SGN d5702      63.829  41.094  34.205  0.00  0.00     0.251 S 
ATOM     28  O4S SGN d5702      63.981  40.566  32.888  0.00  0.00    -0.572 OA
ATOM     29  O5S SGN d5702      64.535  42.340  34.298  0.00  0.00    -0.572 OA
ATOM     30  O6S SGN d5702      62.433  41.210  34.512  0.00  0.00    -0.572 OA
ENDBRANCH  26  27
ENDBRANCH  25  26
ENDBRANCH   3  25
BRANCH   5  31
ATOM     31  O3  SGN d5702      62.389  41.245  40.907  0.00  0.00    -0.391 OA
ATOM     32  H   SGN d5702      62.358  40.568  41.601  0.00  0.00     0.210 HD
ENDBRANCH   5  31
BRANCH   2  33
ATOM     33  N   SGN d5702      61.330  38.672  40.588  0.00  0.00    -0.189 NA
ATOM     34  H   SGN d5702      60.675  38.219  39.950  0.00  0.00     0.143 HD
BRANCH  33  35
ATOM     35  S1  SGN d5702      61.796  37.518  41.841  0.00  0.00     0.183 S 
ATOM     36  O1S SGN d5702      61.981  36.220  41.224  0.00  0.00    -0.582 OA
ATOM     37  O2S SGN d5702      60.726  37.400  42.777  0.00  0.00    -0.582 OA
ATOM     38  O3S SGN d5702      63.004  38.064  42.430  0.00  0.00    -0.582 OA
ENDBRANCH  33  35
ENDBRANCH   2  33
BRANCH   6  39
ATOM     39  O1  SGN d5702      61.221  38.600  37.811  0.00  0.00    -0.369 OA
ATOM     40  H   SGN d5702      60.488  38.279  38.358  0.00  0.00     0.212 HD
ENDBRANCH   6  39
TORSDOF 14
ENDMDL
MODEL 52
REMARK VINA RESULT:      -3.6      3.555      6.951
REMARK  14 active torsions:
REMARK  status: ('A' for Active; 'I' for Inactive)
REMARK    1  A    between atoms: C5_1  and  C6_23 
REMARK    2  A    between atoms: S2_5  and  O6_7 
REMARK    3  A    between atoms: O1_6  and  C1_35 
REMARK    4  A    between atoms: O6_7  and  C6_21 
REMARK    5  A    between atoms: O2_9  and  C2_28 
REMARK    6  A    between atoms: O2_9  and  S_13 
REMARK    7  A    between atoms: C3_10  and  O3_20 
REMARK    8  A    between atoms: C1_11  and  O4_12 
REMARK    9  A    between atoms: O4_12  and  C4_19 
REMARK   10  A    between atoms: C2_15  and  N_29 
REMARK   11  A    between atoms: C5_17  and  C6_21 
REMARK   12  A    between atoms: C6_23  and  O61_33 
REMARK   13  A    between atoms: O3_24  and  C3_26 
REMARK   14  A    between atoms: S1_27  and  N_29 
ROOT
ATOM      1  O5  SGN d5702      62.153  45.093  36.564  0.00  0.00    -0.350 OA
ATOM      2  C2  SGN d5702      62.272  45.290  38.954  0.00  0.00     0.160 C 
ATOM      3  C5  SGN d5702      63.231  44.190  36.508  0.00  0.00     0.181 C 
ATOM      4  C4  SGN d5702      63.298  43.402  37.832  0.00  0.00     0.186 C 
ATOM      5  C3  SGN d5702      63.506  44.428  38.978  0.00  0.00     0.173 C 
ATOM      6  C1  SGN d5702      62.178  46.039  37.637  0.00  0.00     0.278 C 
ENDROOT
BRANCH   4   7
ATOM      7  O4  SGN d5702      64.417  42.483  37.701  0.00  0.00    -0.348 OA
BRANCH   7   8
ATOM      8  C1  IDU d1623      64.600  41.280  38.419  0.00  0.00     0.294 C 
ATOM      9  O5  IDU d1623      63.516  40.315  38.228  0.00  0.00    -0.343 OA
ATOM     10  C5  IDU d1623      63.634  39.113  39.070  0.00  0.00     0.224 C 
ATOM     11  C4  IDU d1623      64.940  38.385  38.715  0.00  0.00     0.077 C 
ATOM     12  C3  IDU d1623      66.131  39.337  38.907  0.00  0.00     0.156 C 
ATOM     13  C2  IDU d1623      65.899  40.564  38.013  0.00  0.00     0.228 C 
BRANCH  10  14
ATOM     14  C6  IDU d1623      62.488  38.166  38.839  0.00  0.00     0.170 C 
ATOM     15  O62 IDU d1623      62.391  37.173  39.577  0.00  0.00    -0.648 OA
BRANCH  14  16
ATOM     16  O61 IDU d1623      61.695  38.429  37.912  0.00  0.00    -0.774 OA
ENDBRANCH  14  16
ENDBRANCH  10  14
BRANCH  12  18
ATOM     18  O3  IDU d1623      66.205  39.727  40.250  0.00  0.00    -0.393 OA
ATOM     19  H   IDU d1623      65.383  39.482  40.703  0.00  0.00     0.210 HD
ENDBRANCH  12  18
BRANCH  13  20
ATOM     20  O2  IDU d1623      65.759  40.158  36.672  0.00  0.00    -0.244 OA
BRANCH  20  21
ATOM     21  S   IDU d1623      66.963  40.666  35.534  0.00  0.00     0.252 S 
ATOM     22  O3S IDU d1623      68.262  40.387  36.023  0.00  0.00    -0.572 OA
ATOM     23  O1S IDU d1623      66.731  42.056  35.282  0.00  0.00    -0.572 OA
ATOM     24  O2S IDU d1623      66.838  39.929  34.286  0.00  0.00    -0.572 OA
ENDBRANCH  20  21
ENDBRANCH  13  20
ENDBRANCH   7   8
ENDBRANCH   4   7
BRANCH   3  25
ATOM     25  C6  SGN d5702      62.999  43.297  35.329  0.00  0.00     0.227 C 
BRANCH  25  26
ATOM     26  O6  SGN d5702      62.534  44.189  34.327  0.00  0.00    -0.254 OA
BRANCH  26  27
ATOM     27  S2  SGN d5702      63.619  44.649  33.059  0.00  0.00     0.251 S 
ATOM     28  O4S SGN d5702      63.736  46.068  32.964  0.00  0.00    -0.572 OA
ATOM     29  O5S SGN d5702      63.112  44.133  31.819  0.00  0.00    -0.572 OA
ATOM     30  O6S SGN d5702      64.887  44.091  33.427  0.00  0.00    -0.572 OA
ENDBRANCH  26  27
ENDBRANCH  25  26
ENDBRANCH   3  25
BRANCH   5  31
ATOM     31  O3  SGN d5702      63.561  43.757  40.214  0.00  0.00    -0.391 OA
ATOM     32  H   SGN d5702      64.373  43.230  40.261  0.00  0.00     0.210 HD
ENDBRANCH   5  31
BRANCH   2  33
ATOM     33  N   SGN d5702      62.327  46.262  39.996  0.00  0.00    -0.189 NA
ATOM     34  H   SGN d5702      62.249  47.192  39.584  0.00  0.00     0.143 HD
BRANCH  33  35
ATOM     35  S1  SGN d5702      61.024  46.047  41.169  0.00  0.00     0.183 S 
ATOM     36  O1S SGN d5702      61.389  46.735  42.391  0.00  0.00    -0.582 OA
ATOM     37  O2S SGN d5702      60.907  44.659  41.476  0.00  0.00    -0.582 OA
ATOM     38  O3S SGN d5702      59.840  46.585  40.525  0.00  0.00    -0.582 OA
ENDBRANCH  33  35
ENDBRANCH   2  33
BRANCH   6  39
ATOM     39  O1  SGN d5702      63.228  46.959  37.460  0.00  0.00    -0.369 OA
ATOM     40  H   SGN d5702      64.020  46.638  37.920  0.00  0.00     0.212 HD
ENDBRANCH   6  39
TORSDOF 14
ENDMDL
MODEL 53
REMARK VINA RESULT:      -3.6      4.166      7.107
REMARK  14 active torsions:
REMARK  status: ('A' for Active; 'I' for Inactive)
REMARK    1  A    between atoms: C5_1  and  C6_23 
REMARK    2  A    between atoms: S2_5  and  O6_7 
REMARK    3  A    between atoms: O1_6  and  C1_35 
REMARK    4  A    between atoms: O6_7  and  C6_21 
REMARK    5  A    between atoms: O2_9  and  C2_28 
REMARK    6  A    between atoms: O2_9  and  S_13 
REMARK    7  A    between atoms: C3_10  and  O3_20 
REMARK    8  A    between atoms: C1_11  and  O4_12 
REMARK    9  A    between atoms: O4_12  and  C4_19 
REMARK   10  A    between atoms: C2_15  and  N_29 
REMARK   11  A    between atoms: C5_17  and  C6_21 
REMARK   12  A    between atoms: C6_23  and  O61_33 
REMARK   13  A    between atoms: O3_24  and  C3_26 
REMARK   14  A    between atoms: S1_27  and  N_29 
ROOT
ATOM      1  O5  SGN d5702      62.684  40.249  37.431  0.00  0.00    -0.350 OA
ATOM      2  C2  SGN d5702      62.539  38.655  39.219  0.00  0.00     0.160 C 
ATOM      3  C5  SGN d5702      62.596  41.351  38.302  0.00  0.00     0.181 C 
ATOM      4  C4  SGN d5702      63.166  40.951  39.678  0.00  0.00     0.186 C 
ATOM      5  C3  SGN d5702      62.318  39.766  40.212  0.00  0.00     0.173 C 
ATOM      6  C1  SGN d5702      62.016  39.057  37.852  0.00  0.00     0.278 C 
ENDROOT
BRANCH   4   7
ATOM      7  O4  SGN d5702      63.061  42.132  40.520  0.00  0.00    -0.348 OA
BRANCH   7   8
ATOM      8  C1  IDU d1623      64.053  42.630  41.392  0.00  0.00     0.294 C 
ATOM      9  O5  IDU d1623      65.225  43.169  40.698  0.00  0.00    -0.343 OA
ATOM     10  C5  IDU d1623      66.317  43.572  41.598  0.00  0.00     0.224 C 
ATOM     11  C4  IDU d1623      65.808  44.683  42.530  0.00  0.00     0.077 C 
ATOM     12  C3  IDU d1623      64.582  44.181  43.309  0.00  0.00     0.156 C 
ATOM     13  C2  IDU d1623      63.516  43.760  42.285  0.00  0.00     0.228 C 
BRANCH  10  14
ATOM     14  C6  IDU d1623      67.494  44.106  40.828  0.00  0.00     0.170 C 
ATOM     15  O62 IDU d1623      68.566  44.266  41.432  0.00  0.00    -0.648 OA
BRANCH  14  16
ATOM     16  O61 IDU d1623      67.328  44.362  39.618  0.00  0.00    -0.774 OA
ENDBRANCH  14  16
ENDBRANCH  10  14
BRANCH  12  18
ATOM     18  O3  IDU d1623      64.947  43.085  44.101  0.00  0.00    -0.393 OA
ATOM     19  H   IDU d1623      65.709  43.325  44.652  0.00  0.00     0.210 HD
ENDBRANCH  12  18
BRANCH  13  20
ATOM     20  O2  IDU d1623      63.202  44.849  41.449  0.00  0.00    -0.244 OA
BRANCH  20  21
ATOM     21  S   IDU d1623      61.531  45.243  41.214  0.00  0.00     0.252 S 
ATOM     22  O3S IDU d1623      61.285  46.596  41.548  0.00  0.00    -0.572 OA
ATOM     23  O1S IDU d1623      60.774  44.311  41.994  0.00  0.00    -0.572 OA
ATOM     24  O2S IDU d1623      61.159  45.102  39.814  0.00  0.00    -0.572 OA
ENDBRANCH  20  21
ENDBRANCH  13  20
ENDBRANCH   7   8
ENDBRANCH   4   7
BRANCH   3  25
ATOM     25  C6  SGN d5702      63.365  42.472  37.676  0.00  0.00     0.227 C 
BRANCH  25  26
ATOM     26  O6  SGN d5702      62.986  42.407  36.309  0.00  0.00    -0.254 OA
BRANCH  26  27
ATOM     27  S2  SGN d5702      62.242  43.793  35.587  0.00  0.00     0.251 S 
ATOM     28  O4S SGN d5702      62.750  44.031  34.275  0.00  0.00    -0.572 OA
ATOM     29  O5S SGN d5702      62.514  44.935  36.412  0.00  0.00    -0.572 OA
ATOM     30  O6S SGN d5702      60.847  43.473  35.507  0.00  0.00    -0.572 OA
ENDBRANCH  26  27
ENDBRANCH  25  26
ENDBRANCH   3  25
BRANCH   5  31
ATOM     31  O3  SGN d5702      62.808  39.354  41.464  0.00  0.00    -0.391 OA
ATOM     32  H   SGN d5702      63.776  39.308  41.434  0.00  0.00     0.210 HD
ENDBRANCH   5  31
BRANCH   2  33
ATOM     33  N   SGN d5702      61.831  37.485  39.622  0.00  0.00    -0.189 NA
ATOM     34  H   SGN d5702      61.207  37.200  38.866  0.00  0.00     0.143 HD
BRANCH  33  35
ATOM     35  S1  SGN d5702      62.923  36.147  39.994  0.00  0.00     0.183 S 
ATOM     36  O1S SGN d5702      62.144  34.928  40.076  0.00  0.00    -0.582 OA
ATOM     37  O2S SGN d5702      63.505  36.372  41.277  0.00  0.00    -0.582 OA
ATOM     38  O3S SGN d5702      63.901  36.145  38.923  0.00  0.00    -0.582 OA
ENDBRANCH  33  35
ENDBRANCH   2  33
BRANCH   6  39
ATOM     39  O1  SGN d5702      60.621  39.240  37.838  0.00  0.00    -0.369 OA
ATOM     40  H   SGN d5702      60.223  38.642  37.186  0.00  0.00     0.212 HD
ENDBRANCH   6  39
TORSDOF 14
ENDMDL
MODEL 54
REMARK VINA RESULT:      -3.6      3.345      5.583
REMARK  14 active torsions:
REMARK  status: ('A' for Active; 'I' for Inactive)
REMARK    1  A    between atoms: C5_1  and  C6_23 
REMARK    2  A    between atoms: S2_5  and  O6_7 
REMARK    3  A    between atoms: O1_6  and  C1_35 
REMARK    4  A    between atoms: O6_7  and  C6_21 
REMARK    5  A    between atoms: O2_9  and  C2_28 
REMARK    6  A    between atoms: O2_9  and  S_13 
REMARK    7  A    between atoms: C3_10  and  O3_20 
REMARK    8  A    between atoms: C1_11  and  O4_12 
REMARK    9  A    between atoms: O4_12  and  C4_19 
REMARK   10  A    between atoms: C2_15  and  N_29 
REMARK   11  A    between atoms: C5_17  and  C6_21 
REMARK   12  A    between atoms: C6_23  and  O61_33 
REMARK   13  A    between atoms: O3_24  and  C3_26 
REMARK   14  A    between atoms: S1_27  and  N_29 
ROOT
ATOM      1  O5  SGN d5702      64.811  39.040  40.135  0.00  0.00    -0.350 OA
ATOM      2  C2  SGN d5702      65.580  41.283  40.506  0.00  0.00     0.160 C 
ATOM      3  C5  SGN d5702      64.070  39.400  38.995  0.00  0.00     0.181 C 
ATOM      4  C4  SGN d5702      64.728  40.628  38.334  0.00  0.00     0.186 C 
ATOM      5  C3  SGN d5702      64.722  41.781  39.373  0.00  0.00     0.173 C 
ATOM      6  C1  SGN d5702      64.959  40.050  41.137  0.00  0.00     0.278 C 
ENDROOT
BRANCH   4   7
ATOM      7  O4  SGN d5702      63.926  40.936  37.160  0.00  0.00    -0.348 OA
BRANCH   7   8
ATOM      8  C1  IDU d1623      64.412  41.227  35.867  0.00  0.00     0.294 C 
ATOM      9  O5  IDU d1623      65.076  40.092  35.223  0.00  0.00    -0.343 OA
ATOM     10  C5  IDU d1623      65.698  40.421  33.930  0.00  0.00     0.224 C 
ATOM     11  C4  IDU d1623      64.604  40.900  32.961  0.00  0.00     0.077 C 
ATOM     12  C3  IDU d1623      63.871  42.108  33.567  0.00  0.00     0.156 C 
ATOM     13  C2  IDU d1623      63.286  41.671  34.919  0.00  0.00     0.228 C 
BRANCH  10  14
ATOM     14  C6  IDU d1623      66.371  39.220  33.323  0.00  0.00     0.170 C 
ATOM     15  O62 IDU d1623      65.764  38.591  32.443  0.00  0.00    -0.648 OA
BRANCH  14  16
ATOM     16  O61 IDU d1623      67.508  38.919  33.740  0.00  0.00    -0.774 OA
ENDBRANCH  14  16
ENDBRANCH  10  14
BRANCH  12  18
ATOM     18  O3  IDU d1623      64.777  43.160  33.751  0.00  0.00    -0.393 OA
ATOM     19  H   IDU d1623      64.309  43.930  34.110  0.00  0.00     0.210 HD
ENDBRANCH  12  18
BRANCH  13  20
ATOM     20  O2  IDU d1623      62.428  40.571  34.734  0.00  0.00    -0.244 OA
BRANCH  20  21
ATOM     21  S   IDU d1623      60.854  40.632  35.456  0.00  0.00     0.252 S 
ATOM     22  O3S IDU d1623      60.881  40.082  36.760  0.00  0.00    -0.572 OA
ATOM     23  O1S IDU d1623      59.965  39.951  34.564  0.00  0.00    -0.572 OA
ATOM     24  O2S IDU d1623      60.409  42.008  35.611  0.00  0.00    -0.572 OA
ENDBRANCH  20  21
ENDBRANCH  13  20
ENDBRANCH   7   8
ENDBRANCH   4   7
BRANCH   3  25
ATOM     25  C6  SGN d5702      64.050  38.211  38.086  0.00  0.00     0.227 C 
BRANCH  25  26
ATOM     26  O6  SGN d5702      62.728  37.714  38.224  0.00  0.00    -0.254 OA
BRANCH  26  27
ATOM     27  S2  SGN d5702      62.490  36.206  39.040  0.00  0.00     0.251 S 
ATOM     28  O4S SGN d5702      61.493  35.416  38.392  0.00  0.00    -0.572 OA
ATOM     29  O5S SGN d5702      62.074  36.478  40.386  0.00  0.00    -0.572 OA
ATOM     30  O6S SGN d5702      63.754  35.533  38.964  0.00  0.00    -0.572 OA
ENDBRANCH  26  27
ENDBRANCH  25  26
ENDBRANCH   3  25
BRANCH   5  31
ATOM     31  O3  SGN d5702      65.326  42.925  38.821  0.00  0.00    -0.391 OA
ATOM     32  H   SGN d5702      66.110  43.161  39.342  0.00  0.00     0.210 HD
ENDBRANCH   5  31
BRANCH   2  33
ATOM     33  N   SGN d5702      65.683  42.278  41.523  0.00  0.00    -0.189 NA
ATOM     34  H   SGN d5702      65.354  41.884  42.404  0.00  0.00     0.143 HD
BRANCH  33  35
ATOM     35  S1  SGN d5702      67.346  42.837  41.734  0.00  0.00     0.183 S 
ATOM     36  O1S SGN d5702      67.322  44.072  42.492  0.00  0.00    -0.582 OA
ATOM     37  O2S SGN d5702      67.898  43.131  40.452  0.00  0.00    -0.582 OA
ATOM     38  O3S SGN d5702      68.030  41.750  42.407  0.00  0.00    -0.582 OA
ENDBRANCH  33  35
ENDBRANCH   2  33
BRANCH   6  39
ATOM     39  O1  SGN d5702      63.723  40.321  41.753  0.00  0.00    -0.369 OA
ATOM     40  H   SGN d5702      63.135  40.761  41.118  0.00  0.00     0.212 HD
ENDBRANCH   6  39
TORSDOF 14
ENDMDL
MODEL 55
REMARK VINA RESULT:      -3.6      3.888      8.386
REMARK  14 active torsions:
REMARK  status: ('A' for Active; 'I' for Inactive)
REMARK    1  A    between atoms: C5_1  and  C6_23 
REMARK    2  A    between atoms: S2_5  and  O6_7 
REMARK    3  A    between atoms: O1_6  and  C1_35 
REMARK    4  A    between atoms: O6_7  and  C6_21 
REMARK    5  A    between atoms: O2_9  and  C2_28 
REMARK    6  A    between atoms: O2_9  and  S_13 
REMARK    7  A    between atoms: C3_10  and  O3_20 
REMARK    8  A    between atoms: C1_11  and  O4_12 
REMARK    9  A    between atoms: O4_12  and  C4_19 
REMARK   10  A    between atoms: C2_15  and  N_29 
REMARK   11  A    between atoms: C5_17  and  C6_21 
REMARK   12  A    between atoms: C6_23  and  O61_33 
REMARK   13  A    between atoms: O3_24  and  C3_26 
REMARK   14  A    between atoms: S1_27  and  N_29 
ROOT
ATOM      1  O5  SGN d5702      62.590  40.957  35.207  0.00  0.00    -0.350 OA
ATOM      2  C2  SGN d5702      63.787  42.797  34.236  0.00  0.00     0.160 C 
ATOM      3  C5  SGN d5702      63.145  41.169  36.483  0.00  0.00     0.181 C 
ATOM      4  C4  SGN d5702      63.493  42.663  36.638  0.00  0.00     0.186 C 
ATOM      5  C3  SGN d5702      64.521  43.023  35.532  0.00  0.00     0.173 C 
ATOM      6  C1  SGN d5702      63.405  41.335  34.094  0.00  0.00     0.278 C 
ENDROOT
BRANCH   4   7
ATOM      7  O4  SGN d5702      64.044  42.815  37.976  0.00  0.00    -0.348 OA
BRANCH   7   8
ATOM      8  C1  IDU d1623      63.897  43.938  38.820  0.00  0.00     0.294 C 
ATOM      9  O5  IDU d1623      62.519  44.158  39.264  0.00  0.00    -0.343 OA
ATOM     10  C5  IDU d1623      62.334  45.397  40.037  0.00  0.00     0.224 C 
ATOM     11  C4  IDU d1623      63.201  45.324  41.305  0.00  0.00     0.077 C 
ATOM     12  C3  IDU d1623      64.671  45.110  40.914  0.00  0.00     0.156 C 
ATOM     13  C2  IDU d1623      64.753  43.815  40.090  0.00  0.00     0.228 C 
BRANCH  10  14
ATOM     14  C6  IDU d1623      60.900  45.573  40.457  0.00  0.00     0.170 C 
ATOM     15  O62 IDU d1623      60.163  46.272  39.744  0.00  0.00    -0.648 OA
BRANCH  14  16
ATOM     16  O61 IDU d1623      60.528  45.006  41.504  0.00  0.00    -0.774 OA
ENDBRANCH  14  16
ENDBRANCH  10  14
BRANCH  12  18
ATOM     18  O3  IDU d1623      65.115  46.195  40.148  0.00  0.00    -0.393 OA
ATOM     19  H   IDU d1623      65.086  47.002  40.685  0.00  0.00     0.210 HD
ENDBRANCH  12  18
BRANCH  13  20
ATOM     20  O2  IDU d1623      64.244  42.739  40.843  0.00  0.00    -0.244 OA
BRANCH  20  21
ATOM     21  S   IDU d1623      65.315  41.925  41.934  0.00  0.00     0.252 S 
ATOM     22  O3S IDU d1623      65.148  42.409  43.253  0.00  0.00    -0.572 OA
ATOM     23  O1S IDU d1623      66.640  42.104  41.421  0.00  0.00    -0.572 OA
ATOM     24  O2S IDU d1623      65.016  40.502  41.988  0.00  0.00    -0.572 OA
ENDBRANCH  20  21
ENDBRANCH  13  20
ENDBRANCH   7   8
ENDBRANCH   4   7
BRANCH   3  25
ATOM     25  C6  SGN d5702      62.130  40.718  37.486  0.00  0.00     0.227 C 
BRANCH  25  26
ATOM     26  O6  SGN d5702      62.023  39.324  37.242  0.00  0.00    -0.254 OA
BRANCH  26  27
ATOM     27  S2  SGN d5702      63.006  38.242  38.168  0.00  0.00     0.251 S 
ATOM     28  O4S SGN d5702      64.155  37.824  37.431  0.00  0.00    -0.572 OA
ATOM     29  O5S SGN d5702      62.220  37.091  38.508  0.00  0.00    -0.572 OA
ATOM     30  O6S SGN d5702      63.425  38.999  39.312  0.00  0.00    -0.572 OA
ENDBRANCH  26  27
ENDBRANCH  25  26
ENDBRANCH   3  25
BRANCH   5  31
ATOM     31  O3  SGN d5702      64.863  44.385  35.622  0.00  0.00    -0.391 OA
ATOM     32  H   SGN d5702      65.385  44.534  36.426  0.00  0.00     0.210 HD
ENDBRANCH   5  31
BRANCH   2  33
ATOM     33  N   SGN d5702      64.623  43.130  33.130  0.00  0.00    -0.189 NA
ATOM     34  H   SGN d5702      64.698  42.318  32.517  0.00  0.00     0.143 HD
BRANCH  33  35
ATOM     35  S1  SGN d5702      63.980  44.488  32.201  0.00  0.00     0.183 S 
ATOM     36  O1S SGN d5702      63.333  45.406  33.118  0.00  0.00    -0.582 OA
ATOM     37  O2S SGN d5702      62.983  44.001  31.306  0.00  0.00    -0.582 OA
ATOM     38  O3S SGN d5702      65.125  45.056  31.516  0.00  0.00    -0.582 OA
ENDBRANCH  33  35
ENDBRANCH   2  33
BRANCH   6  39
ATOM     39  O1  SGN d5702      64.525  40.489  33.992  0.00  0.00    -0.369 OA
ATOM     40  H   SGN d5702      65.267  40.875  34.484  0.00  0.00     0.212 HD
ENDBRANCH   6  39
TORSDOF 14
ENDMDL
MODEL 56
REMARK VINA RESULT:      -3.6      3.324      7.655
REMARK  14 active torsions:
REMARK  status: ('A' for Active; 'I' for Inactive)
REMARK    1  A    between atoms: C5_1  and  C6_23 
REMARK    2  A    between atoms: S2_5  and  O6_7 
REMARK    3  A    between atoms: O1_6  and  C1_35 
REMARK    4  A    between atoms: O6_7  and  C6_21 
REMARK    5  A    between atoms: O2_9  and  C2_28 
REMARK    6  A    between atoms: O2_9  and  S_13 
REMARK    7  A    between atoms: C3_10  and  O3_20 
REMARK    8  A    between atoms: C1_11  and  O4_12 
REMARK    9  A    between atoms: O4_12  and  C4_19 
REMARK   10  A    between atoms: C2_15  and  N_29 
REMARK   11  A    between atoms: C5_17  and  C6_21 
REMARK   12  A    between atoms: C6_23  and  O61_33 
REMARK   13  A    between atoms: O3_24  and  C3_26 
REMARK   14  A    between atoms: S1_27  and  N_29 
ROOT
ATOM      1  O5  SGN d5702      65.560  44.993  35.456  0.00  0.00    -0.350 OA
ATOM      2  C2  SGN d5702      64.054  44.082  33.824  0.00  0.00     0.160 C 
ATOM      3  C5  SGN d5702      64.886  44.385  36.531  0.00  0.00     0.181 C 
ATOM      4  C4  SGN d5702      64.205  43.095  36.033  0.00  0.00     0.186 C 
ATOM      5  C3  SGN d5702      63.202  43.494  34.917  0.00  0.00     0.173 C 
ATOM      6  C1  SGN d5702      64.760  45.330  34.319  0.00  0.00     0.278 C 
ENDROOT
BRANCH   4   7
ATOM      7  O4  SGN d5702      63.544  42.512  37.190  0.00  0.00    -0.348 OA
BRANCH   7   8
ATOM      8  C1  IDU d1623      63.140  41.166  37.333  0.00  0.00     0.294 C 
ATOM      9  O5  IDU d1623      64.238  40.208  37.193  0.00  0.00    -0.343 OA
ATOM     10  C5  IDU d1623      63.807  38.801  37.213  0.00  0.00     0.224 C 
ATOM     11  C4  IDU d1623      63.135  38.508  38.565  0.00  0.00     0.077 C 
ATOM     12  C3  IDU d1623      61.956  39.470  38.775  0.00  0.00     0.156 C 
ATOM     13  C2  IDU d1623      62.503  40.904  38.708  0.00  0.00     0.228 C 
BRANCH  10  14
ATOM     14  C6  IDU d1623      64.975  37.866  37.055  0.00  0.00     0.170 C 
ATOM     15  O62 IDU d1623      64.755  36.646  37.071  0.00  0.00    -0.648 OA
BRANCH  14  16
ATOM     16  O61 IDU d1623      66.108  38.372  36.917  0.00  0.00    -0.774 OA
ENDBRANCH  14  16
ENDBRANCH  10  14
BRANCH  12  18
ATOM     18  O3  IDU d1623      61.005  39.270  37.767  0.00  0.00    -0.393 OA
ATOM     19  H   IDU d1623      61.448  38.966  36.960  0.00  0.00     0.210 HD
ENDBRANCH  12  18
BRANCH  13  20
ATOM     20  O2  IDU d1623      63.506  41.078  39.681  0.00  0.00    -0.244 OA
BRANCH  20  21
ATOM     21  S   IDU d1623      63.190  42.160  40.996  0.00  0.00     0.252 S 
ATOM     22  O3S IDU d1623      62.513  43.316  40.540  0.00  0.00    -0.572 OA
ATOM     23  O1S IDU d1623      64.451  42.439  41.613  0.00  0.00    -0.572 OA
ATOM     24  O2S IDU d1623      62.309  41.540  41.975  0.00  0.00    -0.572 OA
ENDBRANCH  20  21
ENDBRANCH  13  20
ENDBRANCH   7   8
ENDBRANCH   4   7
BRANCH   3  25
ATOM     25  C6  SGN d5702      65.904  44.113  37.593  0.00  0.00     0.227 C 
BRANCH  25  26
ATOM     26  O6  SGN d5702      66.983  43.534  36.874  0.00  0.00    -0.254 OA
BRANCH  26  27
ATOM     27  S2  SGN d5702      67.682  42.066  37.467  0.00  0.00     0.251 S 
ATOM     28  O4S SGN d5702      68.988  42.289  37.998  0.00  0.00    -0.572 OA
ATOM     29  O5S SGN d5702      67.769  41.133  36.380  0.00  0.00    -0.572 OA
ATOM     30  O6S SGN d5702      66.809  41.630  38.518  0.00  0.00    -0.572 OA
ENDBRANCH  26  27
ENDBRANCH  25  26
ENDBRANCH   3  25
BRANCH   5  31
ATOM     31  O3  SGN d5702      62.560  42.345  34.418  0.00  0.00    -0.391 OA
ATOM     32  H   SGN d5702      62.047  42.579  33.629  0.00  0.00     0.210 HD
ENDBRANCH   5  31
BRANCH   2  33
ATOM     33  N   SGN d5702      63.243  44.460  32.713  0.00  0.00    -0.189 NA
ATOM     34  H   SGN d5702      63.323  45.468  32.575  0.00  0.00     0.143 HD
BRANCH  33  35
ATOM     35  S1  SGN d5702      63.733  43.640  31.228  0.00  0.00     0.183 S 
ATOM     36  O1S SGN d5702      63.706  42.210  31.462  0.00  0.00    -0.582 OA
ATOM     37  O2S SGN d5702      65.080  44.000  30.927  0.00  0.00    -0.582 OA
ATOM     38  O3S SGN d5702      62.791  44.085  30.219  0.00  0.00    -0.582 OA
ENDBRANCH  33  35
ENDBRANCH   2  33
BRANCH   6  39
ATOM     39  O1  SGN d5702      63.866  46.370  34.636  0.00  0.00    -0.369 OA
ATOM     40  H   SGN d5702      63.713  46.384  35.594  0.00  0.00     0.212 HD
ENDBRANCH   6  39
TORSDOF 14
ENDMDL
MODEL 57
REMARK VINA RESULT:      -3.6      2.864      4.614
REMARK  14 active torsions:
REMARK  status: ('A' for Active; 'I' for Inactive)
REMARK    1  A    between atoms: C5_1  and  C6_23 
REMARK    2  A    between atoms: S2_5  and  O6_7 
REMARK    3  A    between atoms: O1_6  and  C1_35 
REMARK    4  A    between atoms: O6_7  and  C6_21 
REMARK    5  A    between atoms: O2_9  and  C2_28 
REMARK    6  A    between atoms: O2_9  and  S_13 
REMARK    7  A    between atoms: C3_10  and  O3_20 
REMARK    8  A    between atoms: C1_11  and  O4_12 
REMARK    9  A    between atoms: O4_12  and  C4_19 
REMARK   10  A    between atoms: C2_15  and  N_29 
REMARK   11  A    between atoms: C5_17  and  C6_21 
REMARK   12  A    between atoms: C6_23  and  O61_33 
REMARK   13  A    between atoms: O3_24  and  C3_26 
REMARK   14  A    between atoms: S1_27  and  N_29 
ROOT
ATOM      1  O5  SGN d5702      61.802  38.305  38.118  0.00  0.00    -0.350 OA
ATOM      2  C2  SGN d5702      63.548  36.671  38.328  0.00  0.00     0.160 C 
ATOM      3  C5  SGN d5702      62.653  39.372  38.458  0.00  0.00     0.181 C 
ATOM      4  C4  SGN d5702      64.096  39.016  38.048  0.00  0.00     0.186 C 
ATOM      5  C3  SGN d5702      64.500  37.731  38.818  0.00  0.00     0.173 C 
ATOM      6  C1  SGN d5702      62.121  37.035  38.693  0.00  0.00     0.278 C 
ENDROOT
BRANCH   4   7
ATOM      7  O4  SGN d5702      64.916  40.161  38.411  0.00  0.00    -0.348 OA
BRANCH   7   8
ATOM      8  C1  IDU d1623      65.917  40.761  37.615  0.00  0.00     0.294 C 
ATOM      9  O5  IDU d1623      65.416  41.285  36.343  0.00  0.00    -0.343 OA
ATOM     10  C5  IDU d1623      66.471  41.795  35.453  0.00  0.00     0.224 C 
ATOM     11  C4  IDU d1623      67.193  42.957  36.155  0.00  0.00     0.077 C 
ATOM     12  C3  IDU d1623      67.763  42.474  37.498  0.00  0.00     0.156 C 
ATOM     13  C2  IDU d1623      66.593  41.937  38.337  0.00  0.00     0.228 C 
BRANCH  10  14
ATOM     14  C6  IDU d1623      65.897  42.310  34.160  0.00  0.00     0.170 C 
ATOM     15  O62 IDU d1623      65.078  41.598  33.559  0.00  0.00    -0.648 OA
BRANCH  14  16
ATOM     16  O61 IDU d1623      66.279  43.429  33.761  0.00  0.00    -0.774 OA
ENDBRANCH  14  16
ENDBRANCH  10  14
BRANCH  12  18
ATOM     18  O3  IDU d1623      68.698  41.458  37.270  0.00  0.00    -0.393 OA
ATOM     19  H   IDU d1623      68.749  41.272  36.320  0.00  0.00     0.210 HD
ENDBRANCH  12  18
BRANCH  13  20
ATOM     20  O2  IDU d1623      65.625  42.945  38.506  0.00  0.00    -0.244 OA
BRANCH  20  21
ATOM     21  S   IDU d1623      65.032  43.249  40.105  0.00  0.00     0.252 S 
ATOM     22  O3S IDU d1623      65.209  44.609  40.454  0.00  0.00    -0.572 OA
ATOM     23  O1S IDU d1623      65.712  42.340  40.977  0.00  0.00    -0.572 OA
ATOM     24  O2S IDU d1623      63.601  43.000  40.182  0.00  0.00    -0.572 OA
ENDBRANCH  20  21
ENDBRANCH  13  20
ENDBRANCH   7   8
ENDBRANCH   4   7
BRANCH   3  25
ATOM     25  C6  SGN d5702      62.146  40.587  37.746  0.00  0.00     0.227 C 
BRANCH  25  26
ATOM     26  O6  SGN d5702      61.021  40.101  37.028  0.00  0.00    -0.254 OA
BRANCH  26  27
ATOM     27  S2  SGN d5702      60.765  40.660  35.410  0.00  0.00     0.251 S 
ATOM     28  O4S SGN d5702      60.000  39.724  34.652  0.00  0.00    -0.572 OA
ATOM     29  O5S SGN d5702      62.044  40.840  34.784  0.00  0.00    -0.572 OA
ATOM     30  O6S SGN d5702      60.026  41.880  35.546  0.00  0.00    -0.572 OA
ENDBRANCH  26  27
ENDBRANCH  25  26
ENDBRANCH   3  25
BRANCH   5  31
ATOM     31  O3  SGN d5702      65.810  37.355  38.467  0.00  0.00    -0.391 OA
ATOM     32  H   SGN d5702      66.246  36.950  39.233  0.00  0.00     0.210 HD
ENDBRANCH   5  31
BRANCH   2  33
ATOM     33  N   SGN d5702      63.843  35.419  38.943  0.00  0.00    -0.189 NA
ATOM     34  H   SGN d5702      63.019  35.102  39.455  0.00  0.00     0.143 HD
BRANCH  33  35
ATOM     35  S1  SGN d5702      64.287  34.188  37.757  0.00  0.00     0.183 S 
ATOM     36  O1S SGN d5702      63.214  34.076  36.789  0.00  0.00    -0.582 OA
ATOM     37  O2S SGN d5702      64.401  32.931  38.420  0.00  0.00    -0.582 OA
ATOM     38  O3S SGN d5702      65.542  34.643  37.189  0.00  0.00    -0.582 OA
ENDBRANCH  33  35
ENDBRANCH   2  33
BRANCH   6  39
ATOM     39  O1  SGN d5702      61.906  37.055  40.084  0.00  0.00    -0.369 OA
ATOM     40  H   SGN d5702      62.409  36.337  40.499  0.00  0.00     0.212 HD
ENDBRANCH   6  39
TORSDOF 14
ENDMDL
MODEL 58
REMARK VINA RESULT:      -3.6      2.786      5.974
REMARK  14 active torsions:
REMARK  status: ('A' for Active; 'I' for Inactive)
REMARK    1  A    between atoms: C5_1  and  C6_23 
REMARK    2  A    between atoms: S2_5  and  O6_7 
REMARK    3  A    between atoms: O1_6  and  C1_35 
REMARK    4  A    between atoms: O6_7  and  C6_21 
REMARK    5  A    between atoms: O2_9  and  C2_28 
REMARK    6  A    between atoms: O2_9  and  S_13 
REMARK    7  A    between atoms: C3_10  and  O3_20 
REMARK    8  A    between atoms: C1_11  and  O4_12 
REMARK    9  A    between atoms: O4_12  and  C4_19 
REMARK   10  A    between atoms: C2_15  and  N_29 
REMARK   11  A    between atoms: C5_17  and  C6_21 
REMARK   12  A    between atoms: C6_23  and  O61_33 
REMARK   13  A    between atoms: O3_24  and  C3_26 
REMARK   14  A    between atoms: S1_27  and  N_29 
ROOT
ATOM      1  O5  SGN d5702      65.119  42.250  37.273  0.00  0.00    -0.350 OA
ATOM      2  C2  SGN d5702      62.810  42.385  36.628  0.00  0.00     0.160 C 
ATOM      3  C5  SGN d5702      65.397  41.227  36.348  0.00  0.00     0.181 C 
ATOM      4  C4  SGN d5702      64.433  41.353  35.151  0.00  0.00     0.186 C 
ATOM      5  C3  SGN d5702      62.986  41.214  35.698  0.00  0.00     0.173 C 
ATOM      6  C1  SGN d5702      63.785  42.289  37.787  0.00  0.00     0.278 C 
ENDROOT
BRANCH   4   7
ATOM      7  O4  SGN d5702      64.783  40.283  34.232  0.00  0.00    -0.348 OA
BRANCH   7   8
ATOM      8  C1  IDU d1623      64.759  40.349  32.821  0.00  0.00     0.294 C 
ATOM      9  O5  IDU d1623      65.654  41.368  32.269  0.00  0.00    -0.343 OA
ATOM     10  C5  IDU d1623      65.541  41.533  30.811  0.00  0.00     0.224 C 
ATOM     11  C4  IDU d1623      65.914  40.205  30.132  0.00  0.00     0.077 C 
ATOM     12  C3  IDU d1623      65.000  39.084  30.653  0.00  0.00     0.156 C 
ATOM     13  C2  IDU d1623      65.168  39.014  32.179  0.00  0.00     0.228 C 
BRANCH  10  14
ATOM     14  C6  IDU d1623      66.475  42.598  30.304  0.00  0.00     0.170 C 
ATOM     15  O62 IDU d1623      65.982  43.653  29.875  0.00  0.00    -0.648 OA
BRANCH  14  16
ATOM     16  O61 IDU d1623      67.700  42.363  30.342  0.00  0.00    -0.774 OA
ENDBRANCH  14  16
ENDBRANCH  10  14
BRANCH  12  18
ATOM     18  O3  IDU d1623      63.669  39.378  30.329  0.00  0.00    -0.393 OA
ATOM     19  H   IDU d1623      63.648  40.032  29.613  0.00  0.00     0.210 HD
ENDBRANCH  12  18
BRANCH  13  20
ATOM     20  O2  IDU d1623      66.520  38.784  32.499  0.00  0.00    -0.244 OA
BRANCH  20  21
ATOM     21  S   IDU d1623      66.910  37.389  33.449  0.00  0.00     0.252 S 
ATOM     22  O3S IDU d1623      66.862  37.695  34.829  0.00  0.00    -0.572 OA
ATOM     23  O1S IDU d1623      68.193  36.934  33.006  0.00  0.00    -0.572 OA
ATOM     24  O2S IDU d1623      65.933  36.332  33.239  0.00  0.00    -0.572 OA
ENDBRANCH  20  21
ENDBRANCH  13  20
ENDBRANCH   7   8
ENDBRANCH   4   7
BRANCH   3  25
ATOM     25  C6  SGN d5702      66.829  41.379  35.938  0.00  0.00     0.227 C 
BRANCH  25  26
ATOM     26  O6  SGN d5702      67.031  42.784  35.966  0.00  0.00    -0.254 OA
BRANCH  26  27
ATOM     27  S2  SGN d5702      67.665  43.559  34.555  0.00  0.00     0.251 S 
ATOM     28  O4S SGN d5702      68.341  42.628  33.710  0.00  0.00    -0.572 OA
ATOM     29  O5S SGN d5702      68.590  44.575  34.971  0.00  0.00    -0.572 OA
ATOM     30  O6S SGN d5702      66.522  44.084  33.866  0.00  0.00    -0.572 OA
ENDBRANCH  26  27
ENDBRANCH  25  26
ENDBRANCH   3  25
BRANCH   5  31
ATOM     31  O3  SGN d5702      62.063  41.336  34.643  0.00  0.00    -0.391 OA
ATOM     32  H   SGN d5702      62.521  41.211  33.797  0.00  0.00     0.210 HD
ENDBRANCH   5  31
BRANCH   2  33
ATOM     33  N   SGN d5702      61.493  42.389  37.174  0.00  0.00    -0.189 NA
ATOM     34  H   SGN d5702      61.519  42.834  38.092  0.00  0.00     0.143 HD
BRANCH  33  35
ATOM     35  S1  SGN d5702      60.355  43.265  36.147  0.00  0.00     0.183 S 
ATOM     36  O1S SGN d5702      61.109  44.092  35.226  0.00  0.00    -0.582 OA
ATOM     37  O2S SGN d5702      59.574  44.135  36.964  0.00  0.00    -0.582 OA
ATOM     38  O3S SGN d5702      59.562  42.239  35.497  0.00  0.00    -0.582 OA
ENDBRANCH  33  35
ENDBRANCH   2  33
BRANCH   6  39
ATOM     39  O1  SGN d5702      63.540  41.173  38.610  0.00  0.00    -0.369 OA
ATOM     40  H   SGN d5702      63.620  40.361  38.086  0.00  0.00     0.212 HD
ENDBRANCH   6  39
TORSDOF 14
ENDMDL
MODEL 59
REMARK VINA RESULT:      -3.6      3.160      7.602
REMARK  14 active torsions:
REMARK  status: ('A' for Active; 'I' for Inactive)
REMARK    1  A    between atoms: C5_1  and  C6_23 
REMARK    2  A    between atoms: S2_5  and  O6_7 
REMARK    3  A    between atoms: O1_6  and  C1_35 
REMARK    4  A    between atoms: O6_7  and  C6_21 
REMARK    5  A    between atoms: O2_9  and  C2_28 
REMARK    6  A    between atoms: O2_9  and  S_13 
REMARK    7  A    between atoms: C3_10  and  O3_20 
REMARK    8  A    between atoms: C1_11  and  O4_12 
REMARK    9  A    between atoms: O4_12  and  C4_19 
REMARK   10  A    between atoms: C2_15  and  N_29 
REMARK   11  A    between atoms: C5_17  and  C6_21 
REMARK   12  A    between atoms: C6_23  and  O61_33 
REMARK   13  A    between atoms: O3_24  and  C3_26 
REMARK   14  A    between atoms: S1_27  and  N_29 
ROOT
ATOM      1  O5  SGN d5702      63.537  45.265  34.549  0.00  0.00    -0.350 OA
ATOM      2  C2  SGN d5702      65.115  44.206  33.082  0.00  0.00     0.160 C 
ATOM      3  C5  SGN d5702      63.329  44.091  35.297  0.00  0.00     0.181 C 
ATOM      4  C4  SGN d5702      64.601  43.223  35.238  0.00  0.00     0.186 C 
ATOM      5  C3  SGN d5702      64.865  42.878  33.747  0.00  0.00     0.173 C 
ATOM      6  C1  SGN d5702      63.879  45.082  33.172  0.00  0.00     0.278 C 
ENDROOT
BRANCH   4   7
ATOM      7  O4  SGN d5702      64.325  42.042  36.039  0.00  0.00    -0.348 OA
BRANCH   7   8
ATOM      8  C1  IDU d1623      65.155  41.501  37.047  0.00  0.00     0.294 C 
ATOM      9  O5  IDU d1623      65.284  42.364  38.223  0.00  0.00    -0.343 OA
ATOM     10  C5  IDU d1623      66.246  41.870  39.221  0.00  0.00     0.224 C 
ATOM     11  C4  IDU d1623      65.771  40.499  39.730  0.00  0.00     0.077 C 
ATOM     12  C3  IDU d1623      65.628  39.530  38.547  0.00  0.00     0.156 C 
ATOM     13  C2  IDU d1623      64.631  40.148  37.554  0.00  0.00     0.228 C 
BRANCH  10  14
ATOM     14  C6  IDU d1623      66.343  42.802  40.399  0.00  0.00     0.170 C 
ATOM     15  O62 IDU d1623      65.679  42.536  41.412  0.00  0.00    -0.648 OA
BRANCH  14  16
ATOM     16  O61 IDU d1623      67.088  43.797  40.291  0.00  0.00    -0.774 OA
ENDBRANCH  14  16
ENDBRANCH  10  14
BRANCH  12  18
ATOM     18  O3  IDU d1623      66.874  39.356  37.932  0.00  0.00    -0.393 OA
ATOM     19  H   IDU d1623      66.914  39.893  37.125  0.00  0.00     0.210 HD
ENDBRANCH  12  18
BRANCH  13  20
ATOM     20  O2  IDU d1623      63.400  40.381  38.197  0.00  0.00    -0.244 OA
BRANCH  20  21
ATOM     21  S   IDU d1623      62.293  39.058  38.348  0.00  0.00     0.252 S 
ATOM     22  O3S IDU d1623      62.885  37.856  37.892  0.00  0.00    -0.572 OA
ATOM     23  O1S IDU d1623      61.111  39.425  37.627  0.00  0.00    -0.572 OA
ATOM     24  O2S IDU d1623      61.946  38.831  39.743  0.00  0.00    -0.572 OA
ENDBRANCH  20  21
ENDBRANCH  13  20
ENDBRANCH   7   8
ENDBRANCH   4   7
BRANCH   3  25
ATOM     25  C6  SGN d5702      62.997  44.512  36.695  0.00  0.00     0.227 C 
BRANCH  25  26
ATOM     26  O6  SGN d5702      61.698  45.072  36.570  0.00  0.00    -0.254 OA
BRANCH  26  27
ATOM     27  S2  SGN d5702      60.346  44.004  36.405  0.00  0.00     0.251 S 
ATOM     28  O4S SGN d5702      60.661  42.693  36.873  0.00  0.00    -0.572 OA
ATOM     29  O5S SGN d5702      59.987  43.935  35.017  0.00  0.00    -0.572 OA
ATOM     30  O6S SGN d5702      59.317  44.569  37.228  0.00  0.00    -0.572 OA
ENDBRANCH  26  27
ENDBRANCH  25  26
ENDBRANCH   3  25
BRANCH   5  31
ATOM     31  O3  SGN d5702      66.028  42.094  33.637  0.00  0.00    -0.391 OA
ATOM     32  H   SGN d5702      65.917  41.449  32.921  0.00  0.00     0.210 HD
ENDBRANCH   5  31
BRANCH   2  33
ATOM     33  N   SGN d5702      65.407  44.019  31.699  0.00  0.00    -0.189 NA
ATOM     34  H   SGN d5702      64.797  44.624  31.148  0.00  0.00     0.143 HD
BRANCH  33  35
ATOM     35  S1  SGN d5702      67.088  44.408  31.321  0.00  0.00     0.183 S 
ATOM     36  O1S SGN d5702      67.869  43.189  31.397  0.00  0.00    -0.582 OA
ATOM     37  O2S SGN d5702      67.588  45.301  32.314  0.00  0.00    -0.582 OA
ATOM     38  O3S SGN d5702      67.053  44.998  29.996  0.00  0.00    -0.582 OA
ENDBRANCH  33  35
ENDBRANCH   2  33
BRANCH   6  39
ATOM     39  O1  SGN d5702      62.787  44.554  32.458  0.00  0.00    -0.369 OA
ATOM     40  H   SGN d5702      62.784  43.588  32.540  0.00  0.00     0.212 HD
ENDBRANCH   6  39
TORSDOF 14
ENDMDL
MODEL 60
REMARK VINA RESULT:      -3.5      2.917      7.778
REMARK  14 active torsions:
REMARK  status: ('A' for Active; 'I' for Inactive)
REMARK    1  A    between atoms: C5_1  and  C6_23 
REMARK    2  A    between atoms: S2_5  and  O6_7 
REMARK    3  A    between atoms: O1_6  and  C1_35 
REMARK    4  A    between atoms: O6_7  and  C6_21 
REMARK    5  A    between atoms: O2_9  and  C2_28 
REMARK    6  A    between atoms: O2_9  and  S_13 
REMARK    7  A    between atoms: C3_10  and  O3_20 
REMARK    8  A    between atoms: C1_11  and  O4_12 
REMARK    9  A    between atoms: O4_12  and  C4_19 
REMARK   10  A    between atoms: C2_15  and  N_29 
REMARK   11  A    between atoms: C5_17  and  C6_21 
REMARK   12  A    between atoms: C6_23  and  O61_33 
REMARK   13  A    between atoms: O3_24  and  C3_26 
REMARK   14  A    between atoms: S1_27  and  N_29 
ROOT
ATOM      1  O5  SGN d5702      62.111  41.469  38.162  0.00  0.00    -0.350 OA
ATOM      2  C2  SGN d5702      62.839  42.039  35.947  0.00  0.00     0.160 C 
ATOM      3  C5  SGN d5702      62.512  40.126  38.032  0.00  0.00     0.181 C 
ATOM      4  C4  SGN d5702      63.686  40.045  37.035  0.00  0.00     0.186 C 
ATOM      5  C3  SGN d5702      63.185  40.599  35.674  0.00  0.00     0.173 C 
ATOM      6  C1  SGN d5702      61.710  42.127  36.958  0.00  0.00     0.278 C 
ENDROOT
BRANCH   4   7
ATOM      7  O4  SGN d5702      64.059  38.642  36.959  0.00  0.00    -0.348 OA
BRANCH   7   8
ATOM      8  C1  IDU d1623      65.370  38.120  37.007  0.00  0.00     0.294 C 
ATOM      9  O5  IDU d1623      65.993  38.224  38.328  0.00  0.00    -0.343 OA
ATOM     10  C5  IDU d1623      67.402  37.802  38.358  0.00  0.00     0.224 C 
ATOM     11  C4  IDU d1623      67.485  36.322  37.947  0.00  0.00     0.077 C 
ATOM     12  C3  IDU d1623      66.862  36.138  36.554  0.00  0.00     0.156 C 
ATOM     13  C2  IDU d1623      65.408  36.632  36.622  0.00  0.00     0.228 C 
BRANCH  10  14
ATOM     14  C6  IDU d1623      67.989  37.941  39.736  0.00  0.00     0.170 C 
ATOM     15  O62 IDU d1623      67.672  37.103  40.595  0.00  0.00    -0.648 OA
BRANCH  14  16
ATOM     16  O61 IDU d1623      68.765  38.896  39.943  0.00  0.00    -0.774 OA
ENDBRANCH  14  16
ENDBRANCH  10  14
BRANCH  12  18
ATOM     18  O3  IDU d1623      67.582  36.888  35.617  0.00  0.00    -0.393 OA
ATOM     19  H   IDU d1623      68.289  37.376  36.068  0.00  0.00     0.210 HD
ENDBRANCH  12  18
BRANCH  13  20
ATOM     20  O2  IDU d1623      64.708  35.918  37.613  0.00  0.00    -0.244 OA
BRANCH  20  21
ATOM     21  S   IDU d1623      63.989  34.404  37.175  0.00  0.00     0.252 S 
ATOM     22  O3S IDU d1623      62.615  34.387  37.515  0.00  0.00    -0.572 OA
ATOM     23  O1S IDU d1623      64.753  33.382  37.824  0.00  0.00    -0.572 OA
ATOM     24  O2S IDU d1623      64.048  34.201  35.736  0.00  0.00    -0.572 OA
ENDBRANCH  20  21
ENDBRANCH  13  20
ENDBRANCH   7   8
ENDBRANCH   4   7
BRANCH   3  25
ATOM     25  C6  SGN d5702      62.895  39.644  39.396  0.00  0.00     0.227 C 
BRANCH  25  26
ATOM     26  O6  SGN d5702      62.151  38.443  39.541  0.00  0.00    -0.254 OA
BRANCH  26  27
ATOM     27  S2  SGN d5702      62.662  37.290  40.726  0.00  0.00     0.251 S 
ATOM     28  O4S SGN d5702      62.236  37.666  42.035  0.00  0.00    -0.572 OA
ATOM     29  O5S SGN d5702      64.095  37.216  40.700  0.00  0.00    -0.572 OA
ATOM     30  O6S SGN d5702      62.026  36.060  40.354  0.00  0.00    -0.572 OA
ENDBRANCH  26  27
ENDBRANCH  25  26
ENDBRANCH   3  25
BRANCH   5  31
ATOM     31  O3  SGN d5702      64.227  40.559  34.729  0.00  0.00    -0.391 OA
ATOM     32  H   SGN d5702      63.871  40.746  33.847  0.00  0.00     0.210 HD
ENDBRANCH   5  31
BRANCH   2  33
ATOM     33  N   SGN d5702      62.393  42.676  34.751  0.00  0.00    -0.189 NA
ATOM     34  H   SGN d5702      61.435  43.000  34.888  0.00  0.00     0.143 HD
BRANCH  33  35
ATOM     35  S1  SGN d5702      63.407  44.056  34.321  0.00  0.00     0.183 S 
ATOM     36  O1S SGN d5702      64.782  43.606  34.230  0.00  0.00    -0.582 OA
ATOM     37  O2S SGN d5702      63.340  45.021  35.370  0.00  0.00    -0.582 OA
ATOM     38  O3S SGN d5702      62.869  44.547  33.067  0.00  0.00    -0.582 OA
ENDBRANCH  33  35
ENDBRANCH   2  33
BRANCH   6  39
ATOM     39  O1  SGN d5702      60.505  41.583  36.475  0.00  0.00    -0.369 OA
ATOM     40  H   SGN d5702      60.238  40.840  37.039  0.00  0.00     0.212 HD
ENDBRANCH   6  39
TORSDOF 14
ENDMDL
MODEL 61
REMARK VINA RESULT:      -3.5      3.636      6.701
REMARK  14 active torsions:
REMARK  status: ('A' for Active; 'I' for Inactive)
REMARK    1  A    between atoms: C5_1  and  C6_23 
REMARK    2  A    between atoms: S2_5  and  O6_7 
REMARK    3  A    between atoms: O1_6  and  C1_35 
REMARK    4  A    between atoms: O6_7  and  C6_21 
REMARK    5  A    between atoms: O2_9  and  C2_28 
REMARK    6  A    between atoms: O2_9  and  S_13 
REMARK    7  A    between atoms: C3_10  and  O3_20 
REMARK    8  A    between atoms: C1_11  and  O4_12 
REMARK    9  A    between atoms: O4_12  and  C4_19 
REMARK   10  A    between atoms: C2_15  and  N_29 
REMARK   11  A    between atoms: C5_17  and  C6_21 
REMARK   12  A    between atoms: C6_23  and  O61_33 
REMARK   13  A    between atoms: O3_24  and  C3_26 
REMARK   14  A    between atoms: S1_27  and  N_29 
ROOT
ATOM      1  O5  SGN d5702      63.939  37.366  37.382  0.00  0.00    -0.350 OA
ATOM      2  C2  SGN d5702      65.645  38.475  36.109  0.00  0.00     0.160 C 
ATOM      3  C5  SGN d5702      63.692  38.497  38.182  0.00  0.00     0.181 C 
ATOM      4  C4  SGN d5702      64.032  39.767  37.377  0.00  0.00     0.186 C 
ATOM      5  C3  SGN d5702      65.534  39.690  36.991  0.00  0.00     0.173 C 
ATOM      6  C1  SGN d5702      65.272  37.225  36.883  0.00  0.00     0.278 C 
ENDROOT
BRANCH   4   7
ATOM      7  O4  SGN d5702      63.741  40.892  38.251  0.00  0.00    -0.348 OA
BRANCH   7   8
ATOM      8  C1  IDU d1623      63.325  42.180  37.847  0.00  0.00     0.294 C 
ATOM      9  O5  IDU d1623      61.975  42.207  37.282  0.00  0.00    -0.343 OA
ATOM     10  C5  IDU d1623      61.581  43.519  36.742  0.00  0.00     0.224 C 
ATOM     11  C4  IDU d1623      61.603  44.551  37.881  0.00  0.00     0.077 C 
ATOM     12  C3  IDU d1623      63.003  44.590  38.515  0.00  0.00     0.156 C 
ATOM     13  C2  IDU d1623      63.329  43.176  39.019  0.00  0.00     0.228 C 
BRANCH  10  14
ATOM     14  C6  IDU d1623      60.192  43.482  36.166  0.00  0.00     0.170 C 
ATOM     15  O62 IDU d1623      59.451  44.458  36.362  0.00  0.00    -0.648 OA
BRANCH  14  16
ATOM     16  O61 IDU d1623      59.857  42.467  35.522  0.00  0.00    -0.774 OA
ENDBRANCH  14  16
ENDBRANCH  10  14
BRANCH  12  18
ATOM     18  O3  IDU d1623      63.941  44.987  37.554  0.00  0.00    -0.393 OA
ATOM     19  H   IDU d1623      64.783  45.190  37.989  0.00  0.00     0.210 HD
ENDBRANCH  12  18
BRANCH  13  20
ATOM     20  O2  IDU d1623      62.345  42.758  39.935  0.00  0.00    -0.244 OA
BRANCH  20  21
ATOM     21  S   IDU d1623      62.361  43.449  41.523  0.00  0.00     0.252 S 
ATOM     22  O3S IDU d1623      61.501  44.571  41.588  0.00  0.00    -0.572 OA
ATOM     23  O1S IDU d1623      63.727  43.755  41.827  0.00  0.00    -0.572 OA
ATOM     24  O2S IDU d1623      61.857  42.501  42.505  0.00  0.00    -0.572 OA
ENDBRANCH  20  21
ENDBRANCH  13  20
ENDBRANCH   7   8
ENDBRANCH   4   7
BRANCH   3  25
ATOM     25  C6  SGN d5702      62.250  38.450  38.580  0.00  0.00     0.227 C 
BRANCH  25  26
ATOM     26  O6  SGN d5702      62.227  37.479  39.616  0.00  0.00    -0.254 OA
BRANCH  26  27
ATOM     27  S2  SGN d5702      62.341  38.015  41.258  0.00  0.00     0.251 S 
ATOM     28  O4S SGN d5702      63.652  37.807  41.782  0.00  0.00    -0.572 OA
ATOM     29  O5S SGN d5702      61.396  37.274  42.044  0.00  0.00    -0.572 OA
ATOM     30  O6S SGN d5702      62.063  39.421  41.216  0.00  0.00    -0.572 OA
ENDBRANCH  26  27
ENDBRANCH  25  26
ENDBRANCH   3  25
BRANCH   5  31
ATOM     31  O3  SGN d5702      65.894  40.825  36.241  0.00  0.00    -0.391 OA
ATOM     32  H   SGN d5702      65.127  41.133  35.734  0.00  0.00     0.210 HD
ENDBRANCH   5  31
BRANCH   2  33
ATOM     33  N   SGN d5702      66.987  38.314  35.655  0.00  0.00    -0.189 NA
ATOM     34  H   SGN d5702      67.322  37.393  35.939  0.00  0.00     0.143 HD
BRANCH  33  35
ATOM     35  S1  SGN d5702      67.111  38.450  33.898  0.00  0.00     0.183 S 
ATOM     36  O1S SGN d5702      66.823  39.820  33.523  0.00  0.00    -0.582 OA
ATOM     37  O2S SGN d5702      66.114  37.622  33.302  0.00  0.00    -0.582 OA
ATOM     38  O3S SGN d5702      68.462  38.027  33.579  0.00  0.00    -0.582 OA
ENDBRANCH  33  35
ENDBRANCH   2  33
BRANCH   6  39
ATOM     39  O1  SGN d5702      66.167  36.952  37.935  0.00  0.00    -0.369 OA
ATOM     40  H   SGN d5702      65.724  37.109  38.784  0.00  0.00     0.212 HD
ENDBRANCH   6  39
TORSDOF 14
ENDMDL
MODEL 62
REMARK VINA RESULT:      -3.5      3.877      6.579
REMARK  14 active torsions:
REMARK  status: ('A' for Active; 'I' for Inactive)
REMARK    1  A    between atoms: C5_1  and  C6_23 
REMARK    2  A    between atoms: S2_5  and  O6_7 
REMARK    3  A    between atoms: O1_6  and  C1_35 
REMARK    4  A    between atoms: O6_7  and  C6_21 
REMARK    5  A    between atoms: O2_9  and  C2_28 
REMARK    6  A    between atoms: O2_9  and  S_13 
REMARK    7  A    between atoms: C3_10  and  O3_20 
REMARK    8  A    between atoms: C1_11  and  O4_12 
REMARK    9  A    between atoms: O4_12  and  C4_19 
REMARK   10  A    between atoms: C2_15  and  N_29 
REMARK   11  A    between atoms: C5_17  and  C6_21 
REMARK   12  A    between atoms: C6_23  and  O61_33 
REMARK   13  A    between atoms: O3_24  and  C3_26 
REMARK   14  A    between atoms: S1_27  and  N_29 
ROOT
ATOM      1  O5  SGN d5702      62.282  41.386  36.043  0.00  0.00    -0.350 OA
ATOM      2  C2  SGN d5702      62.334  39.689  37.741  0.00  0.00     0.160 C 
ATOM      3  C5  SGN d5702      62.248  42.433  36.982  0.00  0.00     0.181 C 
ATOM      4  C4  SGN d5702      62.948  41.972  38.277  0.00  0.00     0.186 C 
ATOM      5  C3  SGN d5702      62.178  40.736  38.812  0.00  0.00     0.173 C 
ATOM      6  C1  SGN d5702      61.682  40.153  36.451  0.00  0.00     0.278 C 
ENDROOT
BRANCH   4   7
ATOM      7  O4  SGN d5702      62.892  43.100  39.193  0.00  0.00    -0.348 OA
BRANCH   7   8
ATOM      8  C1  IDU d1623      63.993  43.727  39.818  0.00  0.00     0.294 C 
ATOM      9  O5  IDU d1623      64.852  44.461  38.887  0.00  0.00    -0.343 OA
ATOM     10  C5  IDU d1623      66.069  45.009  39.507  0.00  0.00     0.224 C 
ATOM     11  C4  IDU d1623      65.661  46.002  40.608  0.00  0.00     0.077 C 
ATOM     12  C3  IDU d1623      64.765  45.294  41.636  0.00  0.00     0.156 C 
ATOM     13  C2  IDU d1623      63.545  44.735  40.888  0.00  0.00     0.228 C 
BRANCH  10  14
ATOM     14  C6  IDU d1623      66.916  45.742  38.502  0.00  0.00     0.170 C 
ATOM     15  O62 IDU d1623      67.928  46.333  38.909  0.00  0.00    -0.648 OA
BRANCH  14  16
ATOM     16  O61 IDU d1623      66.552  45.717  37.309  0.00  0.00    -0.774 OA
ENDBRANCH  14  16
ENDBRANCH  10  14
BRANCH  12  18
ATOM     18  O3  IDU d1623      65.479  44.250  42.238  0.00  0.00    -0.393 OA
ATOM     19  H   IDU d1623      65.511  44.392  43.197  0.00  0.00     0.210 HD
ENDBRANCH  12  18
BRANCH  13  20
ATOM     20  O2  IDU d1623      62.869  45.781  40.230  0.00  0.00    -0.244 OA
BRANCH  20  21
ATOM     21  S   IDU d1623      61.138  45.802  40.293  0.00  0.00     0.252 S 
ATOM     22  O3S IDU d1623      60.664  47.103  40.588  0.00  0.00    -0.572 OA
ATOM     23  O1S IDU d1623      60.748  44.817  41.256  0.00  0.00    -0.572 OA
ATOM     24  O2S IDU d1623      60.570  45.453  38.999  0.00  0.00    -0.572 OA
ENDBRANCH  20  21
ENDBRANCH  13  20
ENDBRANCH   7   8
ENDBRANCH   4   7
BRANCH   3  25
ATOM     25  C6  SGN d5702      62.933  43.609  36.358  0.00  0.00     0.227 C 
BRANCH  25  26
ATOM     26  O6  SGN d5702      63.016  43.251  34.987  0.00  0.00    -0.254 OA
BRANCH  26  27
ATOM     27  S2  SGN d5702      63.637  44.411  33.863  0.00  0.00     0.251 S 
ATOM     28  O4S SGN d5702      64.870  43.973  33.291  0.00  0.00    -0.572 OA
ATOM     29  O5S SGN d5702      63.854  45.647  34.559  0.00  0.00    -0.572 OA
ATOM     30  O6S SGN d5702      62.644  44.508  32.833  0.00  0.00    -0.572 OA
ENDBRANCH  26  27
ENDBRANCH  25  26
ENDBRANCH   3  25
BRANCH   5  31
ATOM     31  O3  SGN d5702      62.787  40.266  39.990  0.00  0.00    -0.391 OA
ATOM     32  H   SGN d5702      62.793  39.296  39.987  0.00  0.00     0.210 HD
ENDBRANCH   5  31
BRANCH   2  33
ATOM     33  N   SGN d5702      61.691  38.479  38.134  0.00  0.00    -0.189 NA
ATOM     34  H   SGN d5702      61.265  38.050  37.312  0.00  0.00     0.143 HD
BRANCH  33  35
ATOM     35  S1  SGN d5702      62.826  37.331  38.852  0.00  0.00     0.183 S 
ATOM     36  O1S SGN d5702      64.174  37.804  38.607  0.00  0.00    -0.582 OA
ATOM     37  O2S SGN d5702      62.686  36.074  38.194  0.00  0.00    -0.582 OA
ATOM     38  O3S SGN d5702      62.472  37.276  40.258  0.00  0.00    -0.582 OA
ENDBRANCH  33  35
ENDBRANCH   2  33
BRANCH   6  39
ATOM     39  O1  SGN d5702      60.287  40.299  36.570  0.00  0.00    -0.369 OA
ATOM     40  H   SGN d5702      59.868  39.425  36.543  0.00  0.00     0.212 HD
ENDBRANCH   6  39
TORSDOF 14
ENDMDL
MODEL 63
REMARK VINA RESULT:      -3.5      2.167      6.157
REMARK  14 active torsions:
REMARK  status: ('A' for Active; 'I' for Inactive)
REMARK    1  A    between atoms: C5_1  and  C6_23 
REMARK    2  A    between atoms: S2_5  and  O6_7 
REMARK    3  A    between atoms: O1_6  and  C1_35 
REMARK    4  A    between atoms: O6_7  and  C6_21 
REMARK    5  A    between atoms: O2_9  and  C2_28 
REMARK    6  A    between atoms: O2_9  and  S_13 
REMARK    7  A    between atoms: C3_10  and  O3_20 
REMARK    8  A    between atoms: C1_11  and  O4_12 
REMARK    9  A    between atoms: O4_12  and  C4_19 
REMARK   10  A    between atoms: C2_15  and  N_29 
REMARK   11  A    between atoms: C5_17  and  C6_21 
REMARK   12  A    between atoms: C6_23  and  O61_33 
REMARK   13  A    between atoms: O3_24  and  C3_26 
REMARK   14  A    between atoms: S1_27  and  N_29 
ROOT
ATOM      1  O5  SGN d5702      63.449  40.184  38.106  0.00  0.00    -0.350 OA
ATOM      2  C2  SGN d5702      61.954  41.662  36.947  0.00  0.00     0.160 C 
ATOM      3  C5  SGN d5702      63.902  39.585  36.916  0.00  0.00     0.181 C 
ATOM      4  C4  SGN d5702      63.784  40.601  35.763  0.00  0.00     0.186 C 
ATOM      5  C3  SGN d5702      62.288  40.998  35.638  0.00  0.00     0.173 C 
ATOM      6  C1  SGN d5702      62.107  40.678  38.093  0.00  0.00     0.278 C 
ENDROOT
BRANCH   4   7
ATOM      7  O4  SGN d5702      64.280  39.927  34.574  0.00  0.00    -0.348 OA
BRANCH   7   8
ATOM      8  C1  IDU d1623      64.606  40.534  33.341  0.00  0.00     0.294 C 
ATOM      9  O5  IDU d1623      65.754  41.439  33.421  0.00  0.00    -0.343 OA
ATOM     10  C5  IDU d1623      66.022  42.173  32.174  0.00  0.00     0.224 C 
ATOM     11  C4  IDU d1623      66.334  41.160  31.060  0.00  0.00     0.077 C 
ATOM     12  C3  IDU d1623      65.159  40.182  30.907  0.00  0.00     0.156 C 
ATOM     13  C2  IDU d1623      64.944  39.492  32.262  0.00  0.00     0.228 C 
BRANCH  10  14
ATOM     14  C6  IDU d1623      67.204  43.092  32.321  0.00  0.00     0.170 C 
ATOM     15  O62 IDU d1623      68.340  42.594  32.295  0.00  0.00    -0.648 OA
BRANCH  14  16
ATOM     16  O61 IDU d1623      66.977  44.311  32.461  0.00  0.00    -0.774 OA
ENDBRANCH  14  16
ENDBRANCH  10  14
BRANCH  12  18
ATOM     18  O3  IDU d1623      64.008  40.889  30.538  0.00  0.00    -0.393 OA
ATOM     19  H   IDU d1623      63.223  40.358  30.744  0.00  0.00     0.210 HD
ENDBRANCH  12  18
BRANCH  13  20
ATOM     20  O2  IDU d1623      66.126  38.839  32.658  0.00  0.00    -0.244 OA
BRANCH  20  21
ATOM     21  S   IDU d1623      66.473  37.288  31.969  0.00  0.00     0.252 S 
ATOM     22  O3S IDU d1623      67.355  37.415  30.870  0.00  0.00    -0.572 OA
ATOM     23  O1S IDU d1623      65.214  36.697  31.629  0.00  0.00    -0.572 OA
ATOM     24  O2S IDU d1623      67.153  36.434  32.932  0.00  0.00    -0.572 OA
ENDBRANCH  20  21
ENDBRANCH  13  20
ENDBRANCH   7   8
ENDBRANCH   4   7
BRANCH   3  25
ATOM     25  C6  SGN d5702      65.317  39.156  37.149  0.00  0.00     0.227 C 
BRANCH  25  26
ATOM     26  O6  SGN d5702      65.184  38.042  38.020  0.00  0.00    -0.254 OA
BRANCH  26  27
ATOM     27  S2  SGN d5702      65.178  36.452  37.337  0.00  0.00     0.251 S 
ATOM     28  O4S SGN d5702      65.471  36.484  35.941  0.00  0.00    -0.572 OA
ATOM     29  O5S SGN d5702      63.877  35.878  37.533  0.00  0.00    -0.572 OA
ATOM     30  O6S SGN d5702      66.217  35.743  38.025  0.00  0.00    -0.572 OA
ENDBRANCH  26  27
ENDBRANCH  25  26
ENDBRANCH   3  25
BRANCH   5  31
ATOM     31  O3  SGN d5702      62.128  41.938  34.603  0.00  0.00    -0.391 OA
ATOM     32  H   SGN d5702      62.895  41.902  34.012  0.00  0.00     0.210 HD
ENDBRANCH   5  31
BRANCH   2  33
ATOM     33  N   SGN d5702      60.599  42.108  36.944  0.00  0.00    -0.189 NA
ATOM     34  H   SGN d5702      60.222  42.024  37.889  0.00  0.00     0.143 HD
BRANCH  33  35
ATOM     35  S1  SGN d5702      60.458  43.789  36.420  0.00  0.00     0.183 S 
ATOM     36  O1S SGN d5702      61.776  44.392  36.454  0.00  0.00    -0.582 OA
ATOM     37  O2S SGN d5702      59.639  44.493  37.352  0.00  0.00    -0.582 OA
ATOM     38  O3S SGN d5702      59.878  43.726  35.092  0.00  0.00    -0.582 OA
ENDBRANCH  33  35
ENDBRANCH   2  33
BRANCH   6  39
ATOM     39  O1  SGN d5702      61.190  39.613  38.019  0.00  0.00    -0.369 OA
ATOM     40  H   SGN d5702      60.712  39.656  37.175  0.00  0.00     0.212 HD
ENDBRANCH   6  39
TORSDOF 14
ENDMDL
MODEL 64
REMARK VINA RESULT:      -3.5      3.605      7.999
REMARK  14 active torsions:
REMARK  status: ('A' for Active; 'I' for Inactive)
REMARK    1  A    between atoms: C5_1  and  C6_23 
REMARK    2  A    between atoms: S2_5  and  O6_7 
REMARK    3  A    between atoms: O1_6  and  C1_35 
REMARK    4  A    between atoms: O6_7  and  C6_21 
REMARK    5  A    between atoms: O2_9  and  C2_28 
REMARK    6  A    between atoms: O2_9  and  S_13 
REMARK    7  A    between atoms: C3_10  and  O3_20 
REMARK    8  A    between atoms: C1_11  and  O4_12 
REMARK    9  A    between atoms: O4_12  and  C4_19 
REMARK   10  A    between atoms: C2_15  and  N_29 
REMARK   11  A    between atoms: C5_17  and  C6_21 
REMARK   12  A    between atoms: C6_23  and  O61_33 
REMARK   13  A    between atoms: O3_24  and  C3_26 
REMARK   14  A    between atoms: S1_27  and  N_29 
ROOT
ATOM      1  O5  SGN d5702      62.587  43.581  37.003  0.00  0.00    -0.350 OA
ATOM      2  C2  SGN d5702      63.206  41.763  35.562  0.00  0.00     0.160 C 
ATOM      3  C5  SGN d5702      62.438  42.744  38.124  0.00  0.00     0.181 C 
ATOM      4  C4  SGN d5702      63.370  41.525  37.969  0.00  0.00     0.186 C 
ATOM      5  C3  SGN d5702      62.955  40.778  36.673  0.00  0.00     0.173 C 
ATOM      6  C1  SGN d5702      62.321  42.985  35.730  0.00  0.00     0.278 C 
ENDROOT
BRANCH   4   7
ATOM      7  O4  SGN d5702      63.179  40.714  39.161  0.00  0.00    -0.348 OA
BRANCH   7   8
ATOM      8  C1  IDU d1623      64.183  40.015  39.868  0.00  0.00     0.294 C 
ATOM      9  O5  IDU d1623      65.198  40.889  40.460  0.00  0.00    -0.343 OA
ATOM     10  C5  IDU d1623      66.315  40.165  41.087  0.00  0.00     0.224 C 
ATOM     11  C4  IDU d1623      65.763  39.294  42.228  0.00  0.00     0.077 C 
ATOM     12  C3  IDU d1623      64.697  38.334  41.676  0.00  0.00     0.156 C 
ATOM     13  C2  IDU d1623      63.597  39.182  41.020  0.00  0.00     0.228 C 
BRANCH  10  14
ATOM     14  C6  IDU d1623      67.328  41.114  41.667  0.00  0.00     0.170 C 
ATOM     15  O62 IDU d1623      67.107  41.591  42.791  0.00  0.00    -0.648 OA
BRANCH  14  16
ATOM     16  O61 IDU d1623      68.339  41.372  40.983  0.00  0.00    -0.774 OA
ENDBRANCH  14  16
ENDBRANCH  10  14
BRANCH  12  18
ATOM     18  O3  IDU d1623      65.280  37.485  40.726  0.00  0.00    -0.393 OA
ATOM     19  H   IDU d1623      65.848  38.003  40.135  0.00  0.00     0.210 HD
ENDBRANCH  12  18
BRANCH  13  20
ATOM     20  O2  IDU d1623      63.061  40.080  41.963  0.00  0.00    -0.244 OA
BRANCH  20  21
ATOM     21  S   IDU d1623      61.740  39.540  42.945  0.00  0.00     0.252 S 
ATOM     22  O3S IDU d1623      60.854  40.609  43.221  0.00  0.00    -0.572 OA
ATOM     23  O1S IDU d1623      62.312  38.951  44.118  0.00  0.00    -0.572 OA
ATOM     24  O2S IDU d1623      60.952  38.537  42.246  0.00  0.00    -0.572 OA
ENDBRANCH  20  21
ENDBRANCH  13  20
ENDBRANCH   7   8
ENDBRANCH   4   7
BRANCH   3  25
ATOM     25  C6  SGN d5702      62.772  43.561  39.333  0.00  0.00     0.227 C 
BRANCH  25  26
ATOM     26  O6  SGN d5702      62.531  44.893  38.906  0.00  0.00    -0.254 OA
BRANCH  26  27
ATOM     27  S2  SGN d5702      61.109  45.701  39.473  0.00  0.00     0.251 S 
ATOM     28  O4S SGN d5702      61.327  47.105  39.607  0.00  0.00    -0.572 OA
ATOM     29  O5S SGN d5702      60.755  45.154  40.752  0.00  0.00    -0.572 OA
ATOM     30  O6S SGN d5702      60.116  45.468  38.465  0.00  0.00    -0.572 OA
ENDBRANCH  26  27
ENDBRANCH  25  26
ENDBRANCH   3  25
BRANCH   5  31
ATOM     31  O3  SGN d5702      63.787  39.660  36.479  0.00  0.00    -0.391 OA
ATOM     32  H   SGN d5702      64.009  39.582  35.538  0.00  0.00     0.210 HD
ENDBRANCH   5  31
BRANCH   2  33
ATOM     33  N   SGN d5702      62.893  41.177  34.301  0.00  0.00    -0.189 NA
ATOM     34  H   SGN d5702      62.165  41.732  33.851  0.00  0.00     0.143 HD
BRANCH  33  35
ATOM     35  S1  SGN d5702      64.300  41.111  33.235  0.00  0.00     0.183 S 
ATOM     36  O1S SGN d5702      64.420  42.385  32.554  0.00  0.00    -0.582 OA
ATOM     37  O2S SGN d5702      64.078  40.112  32.242  0.00  0.00    -0.582 OA
ATOM     38  O3S SGN d5702      65.421  40.805  34.104  0.00  0.00    -0.582 OA
ENDBRANCH  33  35
ENDBRANCH   2  33
BRANCH   6  39
ATOM     39  O1  SGN d5702      60.952  42.684  35.602  0.00  0.00    -0.369 OA
ATOM     40  H   SGN d5702      60.673  42.834  34.685  0.00  0.00     0.212 HD
ENDBRANCH   6  39
TORSDOF 14
ENDMDL
MODEL 65
REMARK VINA RESULT:      -3.5      2.104      3.077
REMARK  14 active torsions:
REMARK  status: ('A' for Active; 'I' for Inactive)
REMARK    1  A    between atoms: C5_1  and  C6_23 
REMARK    2  A    between atoms: S2_5  and  O6_7 
REMARK    3  A    between atoms: O1_6  and  C1_35 
REMARK    4  A    between atoms: O6_7  and  C6_21 
REMARK    5  A    between atoms: O2_9  and  C2_28 
REMARK    6  A    between atoms: O2_9  and  S_13 
REMARK    7  A    between atoms: C3_10  and  O3_20 
REMARK    8  A    between atoms: C1_11  and  O4_12 
REMARK    9  A    between atoms: O4_12  and  C4_19 
REMARK   10  A    between atoms: C2_15  and  N_29 
REMARK   11  A    between atoms: C5_17  and  C6_21 
REMARK   12  A    between atoms: C6_23  and  O61_33 
REMARK   13  A    between atoms: O3_24  and  C3_26 
REMARK   14  A    between atoms: S1_27  and  N_29 
ROOT
ATOM      1  O5  SGN d5702      61.747  39.370  38.614  0.00  0.00    -0.350 OA
ATOM      2  C2  SGN d5702      63.789  38.608  39.620  0.00  0.00     0.160 C 
ATOM      3  C5  SGN d5702      62.310  40.595  38.213  0.00  0.00     0.181 C 
ATOM      4  C4  SGN d5702      63.825  40.405  37.994  0.00  0.00     0.186 C 
ATOM      5  C3  SGN d5702      64.440  39.937  39.340  0.00  0.00     0.173 C 
ATOM      6  C1  SGN d5702      62.291  38.781  39.798  0.00  0.00     0.278 C 
ENDROOT
BRANCH   4   7
ATOM      7  O4  SGN d5702      64.339  41.698  37.569  0.00  0.00    -0.348 OA
BRANCH   7   8
ATOM      8  C1  IDU d1623      65.058  41.964  36.383  0.00  0.00     0.294 C 
ATOM      9  O5  IDU d1623      64.321  41.625  35.164  0.00  0.00    -0.343 OA
ATOM     10  C5  IDU d1623      65.108  41.778  33.930  0.00  0.00     0.224 C 
ATOM     11  C4  IDU d1623      65.534  43.249  33.793  0.00  0.00     0.077 C 
ATOM     12  C3  IDU d1623      66.331  43.674  35.036  0.00  0.00     0.156 C 
ATOM     13  C2  IDU d1623      65.437  43.449  36.266  0.00  0.00     0.228 C 
BRANCH  10  14
ATOM     14  C6  IDU d1623      64.303  41.406  32.715  0.00  0.00     0.170 C 
ATOM     15  O62 IDU d1623      64.233  40.207  32.404  0.00  0.00    -0.648 OA
BRANCH  14  16
ATOM     16  O61 IDU d1623      63.749  42.328  32.082  0.00  0.00    -0.774 OA
ENDBRANCH  14  16
ENDBRANCH  10  14
BRANCH  12  18
ATOM     18  O3  IDU d1623      67.491  42.895  35.136  0.00  0.00    -0.393 OA
ATOM     19  H   IDU d1623      67.811  42.909  36.052  0.00  0.00     0.210 HD
ENDBRANCH  12  18
BRANCH  13  20
ATOM     20  O2  IDU d1623      64.244  44.183  36.128  0.00  0.00    -0.244 OA
BRANCH  20  21
ATOM     21  S   IDU d1623      63.891  45.400  37.310  0.00  0.00     0.252 S 
ATOM     22  O3S IDU d1623      62.916  46.302  36.823  0.00  0.00    -0.572 OA
ATOM     23  O1S IDU d1623      65.136  46.024  37.644  0.00  0.00    -0.572 OA
ATOM     24  O2S IDU d1623      63.322  44.804  38.510  0.00  0.00    -0.572 OA
ENDBRANCH  20  21
ENDBRANCH  13  20
ENDBRANCH   7   8
ENDBRANCH   4   7
BRANCH   3  25
ATOM     25  C6  SGN d5702      61.606  41.018  36.962  0.00  0.00     0.227 C 
BRANCH  25  26
ATOM     26  O6  SGN d5702      61.366  42.402  37.172  0.00  0.00    -0.254 OA
BRANCH  26  27
ATOM     27  S2  SGN d5702      60.363  43.249  36.044  0.00  0.00     0.251 S 
ATOM     28  O4S SGN d5702      59.573  44.243  36.697  0.00  0.00    -0.572 OA
ATOM     29  O5S SGN d5702      59.495  42.301  35.406  0.00  0.00    -0.572 OA
ATOM     30  O6S SGN d5702      61.271  43.885  35.136  0.00  0.00    -0.572 OA
ENDBRANCH  26  27
ENDBRANCH  25  26
ENDBRANCH   3  25
BRANCH   5  31
ATOM     31  O3  SGN d5702      65.824  39.736  39.188  0.00  0.00    -0.391 OA
ATOM     32  H   SGN d5702      65.980  39.058  38.513  0.00  0.00     0.210 HD
ENDBRANCH   5  31
BRANCH   2  33
ATOM     33  N   SGN d5702      64.302  38.051  40.828  0.00  0.00    -0.189 NA
ATOM     34  H   SGN d5702      63.929  38.577  41.619  0.00  0.00     0.143 HD
BRANCH  33  35
ATOM     35  S1  SGN d5702      63.858  36.352  41.013  0.00  0.00     0.183 S 
ATOM     36  O1S SGN d5702      64.880  35.694  41.803  0.00  0.00    -0.582 OA
ATOM     37  O2S SGN d5702      63.848  35.737  39.726  0.00  0.00    -0.582 OA
ATOM     38  O3S SGN d5702      62.551  36.367  41.642  0.00  0.00    -0.582 OA
ENDBRANCH  33  35
ENDBRANCH   2  33
BRANCH   6  39
ATOM     39  O1  SGN d5702      61.966  39.555  40.928  0.00  0.00    -0.369 OA
ATOM     40  H   SGN d5702      62.055  39.012  41.728  0.00  0.00     0.212 HD
ENDBRANCH   6  39
TORSDOF 14
ENDMDL
MODEL 66
REMARK VINA RESULT:      -3.5      2.713      5.902
REMARK  14 active torsions:
REMARK  status: ('A' for Active; 'I' for Inactive)
REMARK    1  A    between atoms: C5_1  and  C6_23 
REMARK    2  A    between atoms: S2_5  and  O6_7 
REMARK    3  A    between atoms: O1_6  and  C1_35 
REMARK    4  A    between atoms: O6_7  and  C6_21 
REMARK    5  A    between atoms: O2_9  and  C2_28 
REMARK    6  A    between atoms: O2_9  and  S_13 
REMARK    7  A    between atoms: C3_10  and  O3_20 
REMARK    8  A    between atoms: C1_11  and  O4_12 
REMARK    9  A    between atoms: O4_12  and  C4_19 
REMARK   10  A    between atoms: C2_15  and  N_29 
REMARK   11  A    between atoms: C5_17  and  C6_21 
REMARK   12  A    between atoms: C6_23  and  O61_33 
REMARK   13  A    between atoms: O3_24  and  C3_26 
REMARK   14  A    between atoms: S1_27  and  N_29 
ROOT
ATOM      1  O5  SGN d5702      64.220  41.099  38.027  0.00  0.00    -0.350 OA
ATOM      2  C2  SGN d5702      62.373  42.092  36.859  0.00  0.00     0.160 C 
ATOM      3  C5  SGN d5702      64.589  40.304  36.926  0.00  0.00     0.181 C 
ATOM      4  C4  SGN d5702      64.161  41.015  35.626  0.00  0.00     0.186 C 
ATOM      5  C3  SGN d5702      62.620  41.195  35.675  0.00  0.00     0.173 C 
ATOM      6  C1  SGN d5702      62.829  41.416  38.138  0.00  0.00     0.278 C 
ENDROOT
BRANCH   4   7
ATOM      7  O4  SGN d5702      64.584  40.153  34.534  0.00  0.00    -0.348 OA
BRANCH   7   8
ATOM      8  C1  IDU d1623      64.696  40.518  33.174  0.00  0.00     0.294 C 
ATOM      9  O5  IDU d1623      65.715  41.540  32.926  0.00  0.00    -0.343 OA
ATOM     10  C5  IDU d1623      65.752  42.020  31.535  0.00  0.00     0.224 C 
ATOM     11  C4  IDU d1623      66.080  40.836  30.611  0.00  0.00     0.077 C 
ATOM     12  C3  IDU d1623      65.037  39.724  30.806  0.00  0.00     0.156 C 
ATOM     13  C2  IDU d1623      65.057  39.316  32.287  0.00  0.00     0.228 C 
BRANCH  10  14
ATOM     14  C6  IDU d1623      66.809  43.073  31.345  0.00  0.00     0.170 C 
ATOM     15  O62 IDU d1623      67.637  42.914  30.436  0.00  0.00    -0.648 OA
BRANCH  14  16
ATOM     16  O61 IDU d1623      66.796  44.055  32.116  0.00  0.00    -0.774 OA
ENDBRANCH  14  16
ENDBRANCH  10  14
BRANCH  12  18
ATOM     18  O3  IDU d1623      63.770  40.206  30.457  0.00  0.00    -0.393 OA
ATOM     19  H   IDU d1623      63.448  40.802  31.152  0.00  0.00     0.210 HD
ENDBRANCH  12  18
BRANCH  13  20
ATOM     20  O2  IDU d1623      66.352  38.895  32.648  0.00  0.00    -0.244 OA
BRANCH  20  21
ATOM     21  S   IDU d1623      66.550  37.278  33.237  0.00  0.00     0.252 S 
ATOM     22  O3S IDU d1623      67.891  36.852  33.086  0.00  0.00    -0.572 OA
ATOM     23  O1S IDU d1623      65.606  36.464  32.534  0.00  0.00    -0.572 OA
ATOM     24  O2S IDU d1623      66.267  37.209  34.663  0.00  0.00    -0.572 OA
ENDBRANCH  20  21
ENDBRANCH  13  20
ENDBRANCH   7   8
ENDBRANCH   4   7
BRANCH   3  25
ATOM     25  C6  SGN d5702      66.071  40.107  37.001  0.00  0.00     0.227 C 
BRANCH  25  26
ATOM     26  O6  SGN d5702      66.523  41.270  37.679  0.00  0.00    -0.254 OA
BRANCH  26  27
ATOM     27  S2  SGN d5702      67.323  42.504  36.765  0.00  0.00     0.251 S 
ATOM     28  O4S SGN d5702      66.440  43.585  36.470  0.00  0.00    -0.572 OA
ATOM     29  O5S SGN d5702      67.791  41.928  35.536  0.00  0.00    -0.572 OA
ATOM     30  O6S SGN d5702      68.382  42.971  37.610  0.00  0.00    -0.572 OA
ENDBRANCH  26  27
ENDBRANCH  25  26
ENDBRANCH   3  25
BRANCH   5  31
ATOM     31  O3  SGN d5702      62.178  41.853  34.513  0.00  0.00    -0.391 OA
ATOM     32  H   SGN d5702      61.441  42.443  34.735  0.00  0.00     0.210 HD
ENDBRANCH   5  31
BRANCH   2  33
ATOM     33  N   SGN d5702      60.980  42.364  36.992  0.00  0.00    -0.189 NA
ATOM     34  H   SGN d5702      60.716  42.265  37.972  0.00  0.00     0.143 HD
BRANCH  33  35
ATOM     35  S1  SGN d5702      60.571  43.996  36.453  0.00  0.00     0.183 S 
ATOM     36  O1S SGN d5702      61.749  44.831  36.583  0.00  0.00    -0.582 OA
ATOM     37  O2S SGN d5702      59.570  44.528  37.319  0.00  0.00    -0.582 OA
ATOM     38  O3S SGN d5702      60.111  43.841  35.086  0.00  0.00    -0.582 OA
ENDBRANCH  33  35
ENDBRANCH   2  33
BRANCH   6  39
ATOM     39  O1  SGN d5702      62.082  40.261  38.438  0.00  0.00    -0.369 OA
ATOM     40  H   SGN d5702      62.126  40.086  39.391  0.00  0.00     0.212 HD
ENDBRANCH   6  39
TORSDOF 14
ENDMDL
MODEL 67
REMARK VINA RESULT:      -3.5      3.175      5.295
REMARK  14 active torsions:
REMARK  status: ('A' for Active; 'I' for Inactive)
REMARK    1  A    between atoms: C5_1  and  C6_23 
REMARK    2  A    between atoms: S2_5  and  O6_7 
REMARK    3  A    between atoms: O1_6  and  C1_35 
REMARK    4  A    between atoms: O6_7  and  C6_21 
REMARK    5  A    between atoms: O2_9  and  C2_28 
REMARK    6  A    between atoms: O2_9  and  S_13 
REMARK    7  A    between atoms: C3_10  and  O3_20 
REMARK    8  A    between atoms: C1_11  and  O4_12 
REMARK    9  A    between atoms: O4_12  and  C4_19 
REMARK   10  A    between atoms: C2_15  and  N_29 
REMARK   11  A    between atoms: C5_17  and  C6_21 
REMARK   12  A    between atoms: C6_23  and  O61_33 
REMARK   13  A    between atoms: O3_24  and  C3_26 
REMARK   14  A    between atoms: S1_27  and  N_29 
ROOT
ATOM      1  O5  SGN d5702      63.546  38.431  37.556  0.00  0.00    -0.350 OA
ATOM      2  C2  SGN d5702      62.546  39.249  39.579  0.00  0.00     0.160 C 
ATOM      3  C5  SGN d5702      63.583  39.708  36.967  0.00  0.00     0.181 C 
ATOM      4  C4  SGN d5702      63.685  40.773  38.077  0.00  0.00     0.186 C 
ATOM      5  C3  SGN d5702      62.434  40.628  38.984  0.00  0.00     0.173 C 
ATOM      6  C1  SGN d5702      62.487  38.196  38.488  0.00  0.00     0.278 C 
ENDROOT
BRANCH   4   7
ATOM      7  O4  SGN d5702      63.735  42.060  37.401  0.00  0.00    -0.348 OA
BRANCH   7   8
ATOM      8  C1  IDU d1623      64.666  43.095  37.639  0.00  0.00     0.294 C 
ATOM      9  O5  IDU d1623      66.056  42.694  37.413  0.00  0.00    -0.343 OA
ATOM     10  C5  IDU d1623      67.040  43.725  37.781  0.00  0.00     0.224 C 
ATOM     11  C4  IDU d1623      66.795  44.974  36.919  0.00  0.00     0.077 C 
ATOM     12  C3  IDU d1623      65.352  45.465  37.118  0.00  0.00     0.156 C 
ATOM     13  C2  IDU d1623      64.409  44.313  36.737  0.00  0.00     0.228 C 
BRANCH  10  14
ATOM     14  C6  IDU d1623      68.447  43.253  37.536  0.00  0.00     0.170 C 
ATOM     15  O62 IDU d1623      68.637  42.038  37.373  0.00  0.00    -0.648 OA
BRANCH  14  16
ATOM     16  O61 IDU d1623      69.352  44.112  37.512  0.00  0.00    -0.774 OA
ENDBRANCH  14  16
ENDBRANCH  10  14
BRANCH  12  18
ATOM     18  O3  IDU d1623      65.161  45.820  38.460  0.00  0.00    -0.393 OA
ATOM     19  H   IDU d1623      64.507  45.226  38.861  0.00  0.00     0.210 HD
ENDBRANCH  12  18
BRANCH  13  20
ATOM     20  O2  IDU d1623      64.653  43.917  35.408  0.00  0.00    -0.244 OA
BRANCH  20  21
ATOM     21  S   IDU d1623      63.420  44.212  34.228  0.00  0.00     0.252 S 
ATOM     22  O3S IDU d1623      63.533  45.521  33.704  0.00  0.00    -0.572 OA
ATOM     23  O1S IDU d1623      62.165  43.957  34.870  0.00  0.00    -0.572 OA
ATOM     24  O2S IDU d1623      63.564  43.312  33.094  0.00  0.00    -0.572 OA
ENDBRANCH  20  21
ENDBRANCH  13  20
ENDBRANCH   7   8
ENDBRANCH   4   7
BRANCH   3  25
ATOM     25  C6  SGN d5702      64.763  39.735  36.046  0.00  0.00     0.227 C 
BRANCH  25  26
ATOM     26  O6  SGN d5702      64.237  40.302  34.855  0.00  0.00    -0.254 OA
BRANCH  26  27
ATOM     27  S2  SGN d5702      65.094  40.057  33.371  0.00  0.00     0.251 S 
ATOM     28  O4S SGN d5702      65.682  38.758  33.320  0.00  0.00    -0.572 OA
ATOM     29  O5S SGN d5702      66.128  41.048  33.275  0.00  0.00    -0.572 OA
ATOM     30  O6S SGN d5702      64.103  40.172  32.341  0.00  0.00    -0.572 OA
ENDBRANCH  26  27
ENDBRANCH  25  26
ENDBRANCH   3  25
BRANCH   5  31
ATOM     31  O3  SGN d5702      62.486  41.573  40.025  0.00  0.00    -0.391 OA
ATOM     32  H   SGN d5702      63.350  42.014  40.018  0.00  0.00     0.210 HD
ENDBRANCH   5  31
BRANCH   2  33
ATOM     33  N   SGN d5702      61.460  39.005  40.470  0.00  0.00    -0.189 NA
ATOM     34  H   SGN d5702      60.719  38.522  39.962  0.00  0.00     0.143 HD
BRANCH  33  35
ATOM     35  S1  SGN d5702      61.946  38.014  41.849  0.00  0.00     0.183 S 
ATOM     36  O1S SGN d5702      63.384  38.114  42.002  0.00  0.00    -0.582 OA
ATOM     37  O2S SGN d5702      61.638  36.650  41.565  0.00  0.00    -0.582 OA
ATOM     38  O3S SGN d5702      61.199  38.538  42.976  0.00  0.00    -0.582 OA
ENDBRANCH  33  35
ENDBRANCH   2  33
BRANCH   6  39
ATOM     39  O1  SGN d5702      61.244  38.170  37.827  0.00  0.00    -0.369 OA
ATOM     40  H   SGN d5702      61.341  38.558  36.943  0.00  0.00     0.212 HD
ENDBRANCH   6  39
TORSDOF 14
ENDMDL
MODEL 68
REMARK VINA RESULT:      -3.4      3.844      6.860
REMARK  14 active torsions:
REMARK  status: ('A' for Active; 'I' for Inactive)
REMARK    1  A    between atoms: C5_1  and  C6_23 
REMARK    2  A    between atoms: S2_5  and  O6_7 
REMARK    3  A    between atoms: O1_6  and  C1_35 
REMARK    4  A    between atoms: O6_7  and  C6_21 
REMARK    5  A    between atoms: O2_9  and  C2_28 
REMARK    6  A    between atoms: O2_9  and  S_13 
REMARK    7  A    between atoms: C3_10  and  O3_20 
REMARK    8  A    between atoms: C1_11  and  O4_12 
REMARK    9  A    between atoms: O4_12  and  C4_19 
REMARK   10  A    between atoms: C2_15  and  N_29 
REMARK   11  A    between atoms: C5_17  and  C6_21 
REMARK   12  A    between atoms: C6_23  and  O61_33 
REMARK   13  A    between atoms: O3_24  and  C3_26 
REMARK   14  A    between atoms: S1_27  and  N_29 
ROOT
ATOM      1  O5  SGN d5702      62.483  41.504  38.674  0.00  0.00    -0.350 OA
ATOM      2  C2  SGN d5702      63.976  41.766  40.536  0.00  0.00     0.160 C 
ATOM      3  C5  SGN d5702      63.259  40.483  38.096  0.00  0.00     0.181 C 
ATOM      4  C4  SGN d5702      64.020  39.737  39.210  0.00  0.00     0.186 C 
ATOM      5  C3  SGN d5702      64.929  40.769  39.931  0.00  0.00     0.173 C 
ATOM      6  C1  SGN d5702      63.194  42.476  39.446  0.00  0.00     0.278 C 
ENDROOT
BRANCH   4   7
ATOM      7  O4  SGN d5702      64.784  38.691  38.550  0.00  0.00    -0.348 OA
BRANCH   7   8
ATOM      8  C1  IDU d1623      64.802  37.321  38.895  0.00  0.00     0.294 C 
ATOM      9  O5  IDU d1623      63.497  36.670  38.769  0.00  0.00    -0.343 OA
ATOM     10  C5  IDU d1623      63.477  35.278  39.248  0.00  0.00     0.224 C 
ATOM     11  C4  IDU d1623      64.466  34.451  38.410  0.00  0.00     0.077 C 
ATOM     12  C3  IDU d1623      65.869  35.070  38.508  0.00  0.00     0.156 C 
ATOM     13  C2  IDU d1623      65.777  36.522  38.015  0.00  0.00     0.228 C 
BRANCH  10  14
ATOM     14  C6  IDU d1623      62.110  34.667  39.103  0.00  0.00     0.170 C 
ATOM     15  O62 IDU d1623      61.836  33.674  39.795  0.00  0.00    -0.648 OA
BRANCH  14  16
ATOM     16  O61 IDU d1623      61.323  35.192  38.289  0.00  0.00    -0.774 OA
ENDBRANCH  14  16
ENDBRANCH  10  14
BRANCH  12  18
ATOM     18  O3  IDU d1623      66.301  35.040  39.840  0.00  0.00    -0.393 OA
ATOM     19  H   IDU d1623      67.269  34.982  39.865  0.00  0.00     0.210 HD
ENDBRANCH  12  18
BRANCH  13  20
ATOM     20  O2  IDU d1623      65.280  36.548  36.698  0.00  0.00    -0.244 OA
BRANCH  20  21
ATOM     21  S   IDU d1623      66.192  37.400  35.497  0.00  0.00     0.252 S 
ATOM     22  O3S IDU d1623      66.095  36.751  34.243  0.00  0.00    -0.572 OA
ATOM     23  O1S IDU d1623      67.532  37.500  35.990  0.00  0.00    -0.572 OA
ATOM     24  O2S IDU d1623      65.658  38.739  35.297  0.00  0.00    -0.572 OA
ENDBRANCH  20  21
ENDBRANCH  13  20
ENDBRANCH   7   8
ENDBRANCH   4   7
BRANCH   3  25
ATOM     25  C6  SGN d5702      62.321  39.583  37.352  0.00  0.00     0.227 C 
BRANCH  25  26
ATOM     26  O6  SGN d5702      61.200  40.416  37.097  0.00  0.00    -0.254 OA
BRANCH  26  27
ATOM     27  S2  SGN d5702      60.844  40.848  35.459  0.00  0.00     0.251 S 
ATOM     28  O4S SGN d5702      60.095  39.826  34.803  0.00  0.00    -0.572 OA
ATOM     29  O5S SGN d5702      62.083  41.046  34.762  0.00  0.00    -0.572 OA
ATOM     30  O6S SGN d5702      60.049  42.038  35.548  0.00  0.00    -0.572 OA
ENDBRANCH  26  27
ENDBRANCH  25  26
ENDBRANCH   3  25
BRANCH   5  31
ATOM     31  O3  SGN d5702      65.638  40.138  40.969  0.00  0.00    -0.391 OA
ATOM     32  H   SGN d5702      65.409  39.196  40.992  0.00  0.00     0.210 HD
ENDBRANCH   5  31
BRANCH   2  33
ATOM     33  N   SGN d5702      64.696  42.759  41.263  0.00  0.00    -0.189 NA
ATOM     34  H   SGN d5702      64.468  43.677  40.881  0.00  0.00     0.143 HD
BRANCH  33  35
ATOM     35  S1  SGN d5702      64.292  42.741  42.983  0.00  0.00     0.183 S 
ATOM     36  O1S SGN d5702      65.141  43.698  43.663  0.00  0.00    -0.582 OA
ATOM     37  O2S SGN d5702      64.591  41.450  43.511  0.00  0.00    -0.582 OA
ATOM     38  O3S SGN d5702      62.880  43.064  43.045  0.00  0.00    -0.582 OA
ENDBRANCH  33  35
ENDBRANCH   2  33
BRANCH   6  39
ATOM     39  O1  SGN d5702      64.013  43.263  38.615  0.00  0.00    -0.369 OA
ATOM     40  H   SGN d5702      64.717  43.669  39.146  0.00  0.00     0.212 HD
ENDBRANCH   6  39
TORSDOF 14
ENDMDL
MODEL 69
REMARK VINA RESULT:      -3.4      3.356      7.302
REMARK  14 active torsions:
REMARK  status: ('A' for Active; 'I' for Inactive)
REMARK    1  A    between atoms: C5_1  and  C6_23 
REMARK    2  A    between atoms: S2_5  and  O6_7 
REMARK    3  A    between atoms: O1_6  and  C1_35 
REMARK    4  A    between atoms: O6_7  and  C6_21 
REMARK    5  A    between atoms: O2_9  and  C2_28 
REMARK    6  A    between atoms: O2_9  and  S_13 
REMARK    7  A    between atoms: C3_10  and  O3_20 
REMARK    8  A    between atoms: C1_11  and  O4_12 
REMARK    9  A    between atoms: O4_12  and  C4_19 
REMARK   10  A    between atoms: C2_15  and  N_29 
REMARK   11  A    between atoms: C5_17  and  C6_21 
REMARK   12  A    between atoms: C6_23  and  O61_33 
REMARK   13  A    between atoms: O3_24  and  C3_26 
REMARK   14  A    between atoms: S1_27  and  N_29 
ROOT
ATOM      1  O5  SGN d5702      63.138  43.314  35.592  0.00  0.00    -0.350 OA
ATOM      2  C2  SGN d5702      63.681  44.454  37.633  0.00  0.00     0.160 C 
ATOM      3  C5  SGN d5702      64.005  42.242  35.870  0.00  0.00     0.181 C 
ATOM      4  C4  SGN d5702      64.141  42.086  37.398  0.00  0.00     0.186 C 
ATOM      5  C3  SGN d5702      64.721  43.414  37.955  0.00  0.00     0.173 C 
ATOM      6  C1  SGN d5702      63.513  44.585  36.131  0.00  0.00     0.278 C 
ENDROOT
BRANCH   4   7
ATOM      7  O4  SGN d5702      65.033  40.958  37.613  0.00  0.00    -0.348 OA
BRANCH   7   8
ATOM      8  C1  IDU d1623      65.058  40.114  38.746  0.00  0.00     0.294 C 
ATOM      9  O5  IDU d1623      63.775  39.461  39.017  0.00  0.00    -0.343 OA
ATOM     10  C5  IDU d1623      63.755  38.683  40.266  0.00  0.00     0.224 C 
ATOM     11  C4  IDU d1623      64.808  37.567  40.172  0.00  0.00     0.077 C 
ATOM     12  C3  IDU d1623      66.190  38.182  39.904  0.00  0.00     0.156 C 
ATOM     13  C2  IDU d1623      66.098  38.993  38.602  0.00  0.00     0.228 C 
BRANCH  10  14
ATOM     14  C6  IDU d1623      62.412  38.045  40.494  0.00  0.00     0.170 C 
ATOM     15  O62 IDU d1623      61.568  38.676  41.150  0.00  0.00    -0.648 OA
BRANCH  14  16
ATOM     16  O61 IDU d1623      62.218  36.911  40.011  0.00  0.00    -0.774 OA
ENDBRANCH  14  16
ENDBRANCH  10  14
BRANCH  12  18
ATOM     18  O3  IDU d1623      66.543  39.021  40.969  0.00  0.00    -0.393 OA
ATOM     19  H   IDU d1623      66.730  38.484  41.755  0.00  0.00     0.210 HD
ENDBRANCH  12  18
BRANCH  13  20
ATOM     20  O2  IDU d1623      65.679  38.157  37.549  0.00  0.00    -0.244 OA
BRANCH  20  21
ATOM     21  S   IDU d1623      66.673  38.066  36.133  0.00  0.00     0.252 S 
ATOM     22  O3S IDU d1623      65.987  38.580  35.007  0.00  0.00    -0.572 OA
ATOM     23  O1S IDU d1623      67.064  36.695  35.991  0.00  0.00    -0.572 OA
ATOM     24  O2S IDU d1623      67.865  38.886  36.284  0.00  0.00    -0.572 OA
ENDBRANCH  20  21
ENDBRANCH  13  20
ENDBRANCH   7   8
ENDBRANCH   4   7
BRANCH   3  25
ATOM     25  C6  SGN d5702      63.421  41.023  35.227  0.00  0.00     0.227 C 
BRANCH  25  26
ATOM     26  O6  SGN d5702      62.159  41.472  34.757  0.00  0.00    -0.254 OA
BRANCH  26  27
ATOM     27  S2  SGN d5702      60.728  40.903  35.548  0.00  0.00     0.251 S 
ATOM     28  O4S SGN d5702      61.019  40.406  36.854  0.00  0.00    -0.572 OA
ATOM     29  O5S SGN d5702      60.161  39.848  34.757  0.00  0.00    -0.572 OA
ATOM     30  O6S SGN d5702      59.875  42.050  35.654  0.00  0.00    -0.572 OA
ENDBRANCH  26  27
ENDBRANCH  25  26
ENDBRANCH   3  25
BRANCH   5  31
ATOM     31  O3  SGN d5702      64.853  43.328  39.354  0.00  0.00    -0.391 OA
ATOM     32  H   SGN d5702      65.170  44.176  39.701  0.00  0.00     0.210 HD
ENDBRANCH   5  31
BRANCH   2  33
ATOM     33  N   SGN d5702      64.086  45.728  38.131  0.00  0.00    -0.189 NA
ATOM     34  H   SGN d5702      64.080  46.399  37.363  0.00  0.00     0.143 HD
BRANCH  33  35
ATOM     35  S1  SGN d5702      63.010  46.311  39.406  0.00  0.00     0.183 S 
ATOM     36  O1S SGN d5702      63.784  47.124  40.323  0.00  0.00    -0.582 OA
ATOM     37  O2S SGN d5702      62.516  45.191  40.137  0.00  0.00    -0.582 OA
ATOM     38  O3S SGN d5702      61.964  47.041  38.716  0.00  0.00    -0.582 OA
ENDBRANCH  33  35
ENDBRANCH   2  33
BRANCH   6  39
ATOM     39  O1  SGN d5702      64.672  45.068  35.495  0.00  0.00    -0.369 OA
ATOM     40  H   SGN d5702      64.426  45.515  34.670  0.00  0.00     0.212 HD
ENDBRANCH   6  39
TORSDOF 14
ENDMDL
MODEL 70
REMARK VINA RESULT:      -3.4      4.259      7.158
REMARK  14 active torsions:
REMARK  status: ('A' for Active; 'I' for Inactive)
REMARK    1  A    between atoms: C5_1  and  C6_23 
REMARK    2  A    between atoms: S2_5  and  O6_7 
REMARK    3  A    between atoms: O1_6  and  C1_35 
REMARK    4  A    between atoms: O6_7  and  C6_21 
REMARK    5  A    between atoms: O2_9  and  C2_28 
REMARK    6  A    between atoms: O2_9  and  S_13 
REMARK    7  A    between atoms: C3_10  and  O3_20 
REMARK    8  A    between atoms: C1_11  and  O4_12 
REMARK    9  A    between atoms: O4_12  and  C4_19 
REMARK   10  A    between atoms: C2_15  and  N_29 
REMARK   11  A    between atoms: C5_17  and  C6_21 
REMARK   12  A    between atoms: C6_23  and  O61_33 
REMARK   13  A    between atoms: O3_24  and  C3_26 
REMARK   14  A    between atoms: S1_27  and  N_29 
ROOT
ATOM      1  O5  SGN d5702      60.913  45.071  38.136  0.00  0.00    -0.350 OA
ATOM      2  C2  SGN d5702      61.038  45.263  40.526  0.00  0.00     0.160 C 
ATOM      3  C5  SGN d5702      62.169  44.444  38.043  0.00  0.00     0.181 C 
ATOM      4  C4  SGN d5702      62.448  43.677  39.352  0.00  0.00     0.186 C 
ATOM      5  C3  SGN d5702      62.439  44.709  40.512  0.00  0.00     0.173 C 
ATOM      6  C1  SGN d5702      60.743  45.984  39.224  0.00  0.00     0.278 C 
ENDROOT
BRANCH   4   7
ATOM      7  O4  SGN d5702      63.746  43.044  39.184  0.00  0.00    -0.348 OA
BRANCH   7   8
ATOM      8  C1  IDU d1623      64.067  41.701  39.480  0.00  0.00     0.294 C 
ATOM      9  O5  IDU d1623      63.330  40.731  38.669  0.00  0.00    -0.343 OA
ATOM     10  C5  IDU d1623      63.562  39.330  39.058  0.00  0.00     0.224 C 
ATOM     11  C4  IDU d1623      65.055  39.008  38.883  0.00  0.00     0.077 C 
ATOM     12  C3  IDU d1623      65.895  39.981  39.724  0.00  0.00     0.156 C 
ATOM     13  C2  IDU d1623      65.560  41.408  39.263  0.00  0.00     0.228 C 
BRANCH  10  14
ATOM     14  C6  IDU d1623      62.771  38.383  38.197  0.00  0.00     0.170 C 
ATOM     15  O62 IDU d1623      61.667  38.758  37.774  0.00  0.00    -0.648 OA
BRANCH  14  16
ATOM     16  O61 IDU d1623      63.271  37.265  37.954  0.00  0.00    -0.774 OA
ENDBRANCH  14  16
ENDBRANCH  10  14
BRANCH  12  18
ATOM     18  O3  IDU d1623      65.574  39.826  41.078  0.00  0.00    -0.393 OA
ATOM     19  H   IDU d1623      66.189  40.348  41.618  0.00  0.00     0.210 HD
ENDBRANCH  12  18
BRANCH  13  20
ATOM     20  O2  IDU d1623      65.823  41.538  37.886  0.00  0.00    -0.244 OA
BRANCH  20  21
ATOM     21  S   IDU d1623      67.257  42.381  37.403  0.00  0.00     0.252 S 
ATOM     22  O3S IDU d1623      68.203  42.401  38.455  0.00  0.00    -0.572 OA
ATOM     23  O1S IDU d1623      66.845  43.685  36.976  0.00  0.00    -0.572 OA
ATOM     24  O2S IDU d1623      67.907  41.702  36.293  0.00  0.00    -0.572 OA
ENDBRANCH  20  21
ENDBRANCH  13  20
ENDBRANCH   7   8
ENDBRANCH   4   7
BRANCH   3  25
ATOM     25  C6  SGN d5702      62.123  43.535  36.855  0.00  0.00     0.227 C 
BRANCH  25  26
ATOM     26  O6  SGN d5702      62.393  44.404  35.766  0.00  0.00    -0.254 OA
BRANCH  26  27
ATOM     27  S2  SGN d5702      63.216  43.768  34.382  0.00  0.00     0.251 S 
ATOM     28  O4S SGN d5702      64.632  43.879  34.522  0.00  0.00    -0.572 OA
ATOM     29  O5S SGN d5702      62.798  44.508  33.225  0.00  0.00    -0.572 OA
ATOM     30  O6S SGN d5702      62.849  42.383  34.329  0.00  0.00    -0.572 OA
ENDBRANCH  26  27
ENDBRANCH  25  26
ENDBRANCH   3  25
BRANCH   5  31
ATOM     31  O3  SGN d5702      62.676  44.056  41.735  0.00  0.00    -0.391 OA
ATOM     32  H   SGN d5702      63.590  43.732  41.757  0.00  0.00     0.210 HD
ENDBRANCH   5  31
BRANCH   2  33
ATOM     33  N   SGN d5702      60.891  46.208  41.583  0.00  0.00    -0.189 NA
ATOM     34  H   SGN d5702      60.311  46.981  41.255  0.00  0.00     0.143 HD
BRANCH  33  35
ATOM     35  S1  SGN d5702      60.132  45.492  43.008  0.00  0.00     0.183 S 
ATOM     36  O1S SGN d5702      61.102  45.478  44.085  0.00  0.00    -0.582 OA
ATOM     37  O2S SGN d5702      59.794  44.138  42.717  0.00  0.00    -0.582 OA
ATOM     38  O3S SGN d5702      58.972  46.320  43.277  0.00  0.00    -0.582 OA
ENDBRANCH  33  35
ENDBRANCH   2  33
BRANCH   6  39
ATOM     39  O1  SGN d5702      61.547  47.125  39.041  0.00  0.00    -0.369 OA
ATOM     40  H   SGN d5702      62.153  47.216  39.793  0.00  0.00     0.212 HD
ENDBRANCH   6  39
TORSDOF 14
ENDMDL
MODEL 71
REMARK VINA RESULT:      -3.4      3.424      8.658
REMARK  14 active torsions:
REMARK  status: ('A' for Active; 'I' for Inactive)
REMARK    1  A    between atoms: C5_1  and  C6_23 
REMARK    2  A    between atoms: S2_5  and  O6_7 
REMARK    3  A    between atoms: O1_6  and  C1_35 
REMARK    4  A    between atoms: O6_7  and  C6_21 
REMARK    5  A    between atoms: O2_9  and  C2_28 
REMARK    6  A    between atoms: O2_9  and  S_13 
REMARK    7  A    between atoms: C3_10  and  O3_20 
REMARK    8  A    between atoms: C1_11  and  O4_12 
REMARK    9  A    between atoms: O4_12  and  C4_19 
REMARK   10  A    between atoms: C2_15  and  N_29 
REMARK   11  A    between atoms: C5_17  and  C6_21 
REMARK   12  A    between atoms: C6_23  and  O61_33 
REMARK   13  A    between atoms: O3_24  and  C3_26 
REMARK   14  A    between atoms: S1_27  and  N_29 
ROOT
ATOM      1  O5  SGN d5702      65.547  40.770  36.842  0.00  0.00    -0.350 OA
ATOM      2  C2  SGN d5702      63.283  41.517  37.129  0.00  0.00     0.160 C 
ATOM      3  C5  SGN d5702      65.524  40.002  38.021  0.00  0.00     0.181 C 
ATOM      4  C4  SGN d5702      64.077  39.548  38.298  0.00  0.00     0.186 C 
ATOM      5  C3  SGN d5702      63.208  40.823  38.463  0.00  0.00     0.173 C 
ATOM      6  C1  SGN d5702      64.712  41.932  36.830  0.00  0.00     0.278 C 
ENDROOT
BRANCH   4   7
ATOM      7  O4  SGN d5702      64.127  38.751  39.514  0.00  0.00    -0.348 OA
BRANCH   7   8
ATOM      8  C1  IDU d1623      63.247  37.704  39.866  0.00  0.00     0.294 C 
ATOM      9  O5  IDU d1623      63.355  36.532  38.995  0.00  0.00    -0.343 OA
ATOM     10  C5  IDU d1623      62.354  35.489  39.274  0.00  0.00     0.224 C 
ATOM     11  C4  IDU d1623      62.548  34.988  40.714  0.00  0.00     0.077 C 
ATOM     12  C3  IDU d1623      62.431  36.168  41.691  0.00  0.00     0.156 C 
ATOM     13  C2  IDU d1623      63.492  37.208  41.300  0.00  0.00     0.228 C 
BRANCH  10  14
ATOM     14  C6  IDU d1623      62.508  34.317  38.342  0.00  0.00     0.170 C 
ATOM     15  O62 IDU d1623      61.674  34.176  37.436  0.00  0.00    -0.648 OA
BRANCH  14  16
ATOM     16  O61 IDU d1623      63.471  33.546  38.534  0.00  0.00    -0.774 OA
ENDBRANCH  14  16
ENDBRANCH  10  14
BRANCH  12  18
ATOM     18  O3  IDU d1623      61.151  36.728  41.597  0.00  0.00    -0.393 OA
ATOM     19  H   IDU d1623      61.197  37.555  41.092  0.00  0.00     0.210 HD
ENDBRANCH  12  18
BRANCH  13  20
ATOM     20  O2  IDU d1623      64.771  36.620  41.333  0.00  0.00    -0.244 OA
BRANCH  20  21
ATOM     21  S   IDU d1623      66.037  37.461  42.164  0.00  0.00     0.252 S 
ATOM     22  O3S IDU d1623      66.994  37.956  41.247  0.00  0.00    -0.572 OA
ATOM     23  O1S IDU d1623      66.579  36.547  43.123  0.00  0.00    -0.572 OA
ATOM     24  O2S IDU d1623      65.512  38.625  42.862  0.00  0.00    -0.572 OA
ENDBRANCH  20  21
ENDBRANCH  13  20
ENDBRANCH   7   8
ENDBRANCH   4   7
BRANCH   3  25
ATOM     25  C6  SGN d5702      66.450  38.844  37.812  0.00  0.00     0.227 C 
BRANCH  25  26
ATOM     26  O6  SGN d5702      65.753  38.031  36.879  0.00  0.00    -0.254 OA
BRANCH  26  27
ATOM     27  S2  SGN d5702      66.157  36.351  36.781  0.00  0.00     0.251 S 
ATOM     28  O4S SGN d5702      67.319  36.141  35.981  0.00  0.00    -0.572 OA
ATOM     29  O5S SGN d5702      65.049  35.651  36.196  0.00  0.00    -0.572 OA
ATOM     30  O6S SGN d5702      66.430  35.949  38.131  0.00  0.00    -0.572 OA
ENDBRANCH  26  27
ENDBRANCH  25  26
ENDBRANCH   3  25
BRANCH   5  31
ATOM     31  O3  SGN d5702      61.870  40.462  38.706  0.00  0.00    -0.391 OA
ATOM     32  H   SGN d5702      61.296  40.881  38.045  0.00  0.00     0.210 HD
ENDBRANCH   5  31
BRANCH   2  33
ATOM     33  N   SGN d5702      62.487  42.700  37.141  0.00  0.00    -0.189 NA
ATOM     34  H   SGN d5702      63.104  43.513  37.106  0.00  0.00     0.143 HD
BRANCH  33  35
ATOM     35  S1  SGN d5702      61.380  42.765  35.766  0.00  0.00     0.183 S 
ATOM     36  O1S SGN d5702      60.028  42.893  36.272  0.00  0.00    -0.582 OA
ATOM     37  O2S SGN d5702      61.457  41.531  35.055  0.00  0.00    -0.582 OA
ATOM     38  O3S SGN d5702      61.819  43.900  34.977  0.00  0.00    -0.582 OA
ENDBRANCH  33  35
ENDBRANCH   2  33
BRANCH   6  39
ATOM     39  O1  SGN d5702      65.197  42.897  37.733  0.00  0.00    -0.369 OA
ATOM     40  H   SGN d5702      64.564  43.631  37.791  0.00  0.00     0.212 HD
ENDBRANCH   6  39
TORSDOF 14
ENDMDL
MODEL 72
REMARK VINA RESULT:      -3.4      2.368      3.909
REMARK  14 active torsions:
REMARK  status: ('A' for Active; 'I' for Inactive)
REMARK    1  A    between atoms: C5_1  and  C6_23 
REMARK    2  A    between atoms: S2_5  and  O6_7 
REMARK    3  A    between atoms: O1_6  and  C1_35 
REMARK    4  A    between atoms: O6_7  and  C6_21 
REMARK    5  A    between atoms: O2_9  and  C2_28 
REMARK    6  A    between atoms: O2_9  and  S_13 
REMARK    7  A    between atoms: C3_10  and  O3_20 
REMARK    8  A    between atoms: C1_11  and  O4_12 
REMARK    9  A    between atoms: O4_12  and  C4_19 
REMARK   10  A    between atoms: C2_15  and  N_29 
REMARK   11  A    between atoms: C5_17  and  C6_21 
REMARK   12  A    between atoms: C6_23  and  O61_33 
REMARK   13  A    between atoms: O3_24  and  C3_26 
REMARK   14  A    between atoms: S1_27  and  N_29 
ROOT
ATOM      1  O5  SGN d5702      63.121  42.048  35.576  0.00  0.00    -0.350 OA
ATOM      2  C2  SGN d5702      63.524  40.335  37.209  0.00  0.00     0.160 C 
ATOM      3  C5  SGN d5702      64.356  41.834  34.935  0.00  0.00     0.181 C 
ATOM      4  C4  SGN d5702      64.781  40.366  35.137  0.00  0.00     0.186 C 
ATOM      5  C3  SGN d5702      64.911  40.120  36.664  0.00  0.00     0.173 C 
ATOM      6  C1  SGN d5702      63.082  41.768  36.978  0.00  0.00     0.278 C 
ENDROOT
BRANCH   4   7
ATOM      7  O4  SGN d5702      66.048  40.211  34.441  0.00  0.00    -0.348 OA
BRANCH   7   8
ATOM      8  C1  IDU d1623      66.478  39.069  33.729  0.00  0.00     0.294 C 
ATOM      9  O5  IDU d1623      65.637  38.750  32.573  0.00  0.00    -0.343 OA
ATOM     10  C5  IDU d1623      66.001  37.491  31.902  0.00  0.00     0.224 C 
ATOM     11  C4  IDU d1623      67.442  37.606  31.380  0.00  0.00     0.077 C 
ATOM     12  C3  IDU d1623      68.390  37.925  32.547  0.00  0.00     0.156 C 
ATOM     13  C2  IDU d1623      67.911  39.233  33.195  0.00  0.00     0.228 C 
BRANCH  10  14
ATOM     14  C6  IDU d1623      65.097  37.212  30.732  0.00  0.00     0.170 C 
ATOM     15  O62 IDU d1623      65.059  36.056  30.285  0.00  0.00    -0.648 OA
BRANCH  14  16
ATOM     16  O61 IDU d1623      64.433  38.163  30.272  0.00  0.00    -0.774 OA
ENDBRANCH  14  16
ENDBRANCH  10  14
BRANCH  12  18
ATOM     18  O3  IDU d1623      68.349  36.883  33.481  0.00  0.00    -0.393 OA
ATOM     19  H   IDU d1623      68.178  36.045  33.023  0.00  0.00     0.210 HD
ENDBRANCH  12  18
BRANCH  13  20
ATOM     20  O2  IDU d1623      67.891  40.262  32.234  0.00  0.00    -0.244 OA
BRANCH  20  21
ATOM     21  S   IDU d1623      68.796  41.703  32.560  0.00  0.00     0.252 S 
ATOM     22  O3S IDU d1623      67.934  42.760  32.935  0.00  0.00    -0.572 OA
ATOM     23  O1S IDU d1623      69.567  41.980  31.386  0.00  0.00    -0.572 OA
ATOM     24  O2S IDU d1623      69.698  41.504  33.684  0.00  0.00    -0.572 OA
ENDBRANCH  20  21
ENDBRANCH  13  20
ENDBRANCH   7   8
ENDBRANCH   4   7
BRANCH   3  25
ATOM     25  C6  SGN d5702      64.168  42.175  33.489  0.00  0.00     0.227 C 
BRANCH  25  26
ATOM     26  O6  SGN d5702      63.287  43.288  33.526  0.00  0.00    -0.254 OA
BRANCH  26  27
ATOM     27  S2  SGN d5702      63.963  44.875  33.662  0.00  0.00     0.251 S 
ATOM     28  O4S SGN d5702      63.400  45.764  32.696  0.00  0.00    -0.572 OA
ATOM     29  O5S SGN d5702      65.379  44.786  33.451  0.00  0.00    -0.572 OA
ATOM     30  O6S SGN d5702      63.614  45.322  34.979  0.00  0.00    -0.572 OA
ENDBRANCH  26  27
ENDBRANCH  25  26
ENDBRANCH   3  25
BRANCH   5  31
ATOM     31  O3  SGN d5702      65.286  38.786  36.903  0.00  0.00    -0.391 OA
ATOM     32  H   SGN d5702      64.909  38.215  36.215  0.00  0.00     0.210 HD
ENDBRANCH   5  31
BRANCH   2  33
ATOM     33  N   SGN d5702      63.503  40.102  38.616  0.00  0.00    -0.189 NA
ATOM     34  H   SGN d5702      63.100  40.917  39.079  0.00  0.00     0.143 HD
BRANCH  33  35
ATOM     35  S1  SGN d5702      62.550  38.676  39.036  0.00  0.00     0.183 S 
ATOM     36  O1S SGN d5702      61.533  38.489  38.020  0.00  0.00    -0.582 OA
ATOM     37  O2S SGN d5702      61.882  38.918  40.273  0.00  0.00    -0.582 OA
ATOM     38  O3S SGN d5702      63.506  37.588  39.114  0.00  0.00    -0.582 OA
ENDBRANCH  33  35
ENDBRANCH   2  33
BRANCH   6  39
ATOM     39  O1  SGN d5702      63.864  42.698  37.689  0.00  0.00    -0.369 OA
ATOM     40  H   SGN d5702      64.754  42.336  37.822  0.00  0.00     0.212 HD
ENDBRANCH   6  39
TORSDOF 14
ENDMDL
MODEL 73
REMARK VINA RESULT:      -3.4      3.768      6.224
REMARK  14 active torsions:
REMARK  status: ('A' for Active; 'I' for Inactive)
REMARK    1  A    between atoms: C5_1  and  C6_23 
REMARK    2  A    between atoms: S2_5  and  O6_7 
REMARK    3  A    between atoms: O1_6  and  C1_35 
REMARK    4  A    between atoms: O6_7  and  C6_21 
REMARK    5  A    between atoms: O2_9  and  C2_28 
REMARK    6  A    between atoms: O2_9  and  S_13 
REMARK    7  A    between atoms: C3_10  and  O3_20 
REMARK    8  A    between atoms: C1_11  and  O4_12 
REMARK    9  A    between atoms: O4_12  and  C4_19 
REMARK   10  A    between atoms: C2_15  and  N_29 
REMARK   11  A    between atoms: C5_17  and  C6_21 
REMARK   12  A    between atoms: C6_23  and  O61_33 
REMARK   13  A    between atoms: O3_24  and  C3_26 
REMARK   14  A    between atoms: S1_27  and  N_29 
ROOT
ATOM      1  O5  SGN d5702      62.398  37.544  38.113  0.00  0.00    -0.350 OA
ATOM      2  C2  SGN d5702      64.623  37.443  39.009  0.00  0.00     0.160 C 
ATOM      3  C5  SGN d5702      62.112  38.763  38.753  0.00  0.00     0.181 C 
ATOM      4  C4  SGN d5702      63.424  39.549  38.950  0.00  0.00     0.186 C 
ATOM      5  C3  SGN d5702      64.365  38.681  39.827  0.00  0.00     0.173 C 
ATOM      6  C1  SGN d5702      63.329  36.685  38.777  0.00  0.00     0.278 C 
ENDROOT
BRANCH   4   7
ATOM      7  O4  SGN d5702      63.057  40.797  39.599  0.00  0.00    -0.348 OA
BRANCH   7   8
ATOM      8  C1  IDU d1623      63.535  42.085  39.269  0.00  0.00     0.294 C 
ATOM      9  O5  IDU d1623      62.805  42.715  38.167  0.00  0.00    -0.343 OA
ATOM     10  C5  IDU d1623      63.376  43.999  37.732  0.00  0.00     0.224 C 
ATOM     11  C4  IDU d1623      63.332  44.986  38.910  0.00  0.00     0.077 C 
ATOM     12  C3  IDU d1623      64.097  44.396  40.106  0.00  0.00     0.156 C 
ATOM     13  C2  IDU d1623      63.445  43.051  40.461  0.00  0.00     0.228 C 
BRANCH  10  14
ATOM     14  C6  IDU d1623      62.592  44.592  36.592  0.00  0.00     0.170 C 
ATOM     15  O62 IDU d1623      61.382  44.808  36.764  0.00  0.00    -0.648 OA
BRANCH  14  16
ATOM     16  O61 IDU d1623      63.202  44.832  35.531  0.00  0.00    -0.774 OA
ENDBRANCH  14  16
ENDBRANCH  10  14
BRANCH  12  18
ATOM     18  O3  IDU d1623      65.438  44.203  39.753  0.00  0.00    -0.393 OA
ATOM     19  H   IDU d1623      66.005  44.407  40.513  0.00  0.00     0.210 HD
ENDBRANCH  12  18
BRANCH  13  20
ATOM     20  O2  IDU d1623      62.081  43.244  40.750  0.00  0.00    -0.244 OA
BRANCH  20  21
ATOM     21  S   IDU d1623      61.646  43.730  42.355  0.00  0.00     0.252 S 
ATOM     22  O3S IDU d1623      60.527  42.995  42.814  0.00  0.00    -0.572 OA
ATOM     23  O1S IDU d1623      61.424  45.144  42.312  0.00  0.00    -0.572 OA
ATOM     24  O2S IDU d1623      62.723  43.447  43.291  0.00  0.00    -0.572 OA
ENDBRANCH  20  21
ENDBRANCH  13  20
ENDBRANCH   7   8
ENDBRANCH   4   7
BRANCH   3  25
ATOM     25  C6  SGN d5702      61.137  39.499  37.889  0.00  0.00     0.227 C 
BRANCH  25  26
ATOM     26  O6  SGN d5702      61.900  39.825  36.737  0.00  0.00    -0.254 OA
BRANCH  26  27
ATOM     27  S2  SGN d5702      61.171  40.805  35.510  0.00  0.00     0.251 S 
ATOM     28  O4S SGN d5702      60.327  40.029  34.659  0.00  0.00    -0.572 OA
ATOM     29  O5S SGN d5702      62.214  41.399  34.724  0.00  0.00    -0.572 OA
ATOM     30  O6S SGN d5702      60.377  41.767  36.217  0.00  0.00    -0.572 OA
ENDBRANCH  26  27
ENDBRANCH  25  26
ENDBRANCH   3  25
BRANCH   5  31
ATOM     31  O3  SGN d5702      65.587  39.350  40.025  0.00  0.00    -0.391 OA
ATOM     32  H   SGN d5702      66.286  38.702  40.200  0.00  0.00     0.210 HD
ENDBRANCH   5  31
BRANCH   2  33
ATOM     33  N   SGN d5702      65.513  36.570  39.700  0.00  0.00    -0.189 NA
ATOM     34  H   SGN d5702      65.086  35.645  39.763  0.00  0.00     0.143 HD
BRANCH  33  35
ATOM     35  S1  SGN d5702      67.069  36.425  38.876  0.00  0.00     0.183 S 
ATOM     36  O1S SGN d5702      66.863  36.665  37.461  0.00  0.00    -0.582 OA
ATOM     37  O2S SGN d5702      67.542  35.087  39.020  0.00  0.00    -0.582 OA
ATOM     38  O3S SGN d5702      67.930  37.401  39.516  0.00  0.00    -0.582 OA
ENDBRANCH  33  35
ENDBRANCH   2  33
BRANCH   6  39
ATOM     39  O1  SGN d5702      62.773  36.183  39.970  0.00  0.00    -0.369 OA
ATOM     40  H   SGN d5702      62.155  35.466  39.761  0.00  0.00     0.212 HD
ENDBRANCH   6  39
TORSDOF 14
ENDMDL
MODEL 74
REMARK VINA RESULT:      -3.4      2.927      4.918
REMARK  14 active torsions:
REMARK  status: ('A' for Active; 'I' for Inactive)
REMARK    1  A    between atoms: C5_1  and  C6_23 
REMARK    2  A    between atoms: S2_5  and  O6_7 
REMARK    3  A    between atoms: O1_6  and  C1_35 
REMARK    4  A    between atoms: O6_7  and  C6_21 
REMARK    5  A    between atoms: O2_9  and  C2_28 
REMARK    6  A    between atoms: O2_9  and  S_13 
REMARK    7  A    between atoms: C3_10  and  O3_20 
REMARK    8  A    between atoms: C1_11  and  O4_12 
REMARK    9  A    between atoms: O4_12  and  C4_19 
REMARK   10  A    between atoms: C2_15  and  N_29 
REMARK   11  A    between atoms: C5_17  and  C6_21 
REMARK   12  A    between atoms: C6_23  and  O61_33 
REMARK   13  A    between atoms: O3_24  and  C3_26 
REMARK   14  A    between atoms: S1_27  and  N_29 
ROOT
ATOM      1  O5  SGN d5702      64.332  39.865  41.384  0.00  0.00    -0.350 OA
ATOM      2  C2  SGN d5702      63.815  37.953  40.028  0.00  0.00     0.160 C 
ATOM      3  C5  SGN d5702      64.754  40.629  40.281  0.00  0.00     0.181 C 
ATOM      4  C4  SGN d5702      64.009  40.149  39.020  0.00  0.00     0.186 C 
ATOM      5  C3  SGN d5702      64.359  38.651  38.810  0.00  0.00     0.173 C 
ATOM      6  C1  SGN d5702      64.516  38.450  41.279  0.00  0.00     0.278 C 
ENDROOT
BRANCH   4   7
ATOM      7  O4  SGN d5702      64.477  40.986  37.927  0.00  0.00    -0.348 OA
BRANCH   7   8
ATOM      8  C1  IDU d1623      63.697  41.486  36.861  0.00  0.00     0.294 C 
ATOM      9  O5  IDU d1623      62.739  42.515  37.270  0.00  0.00    -0.343 OA
ATOM     10  C5  IDU d1623      61.835  42.949  36.193  0.00  0.00     0.224 C 
ATOM     11  C4  IDU d1623      62.674  43.554  35.056  0.00  0.00     0.077 C 
ATOM     12  C3  IDU d1623      63.696  42.519  34.561  0.00  0.00     0.156 C 
ATOM     13  C2  IDU d1623      64.567  42.111  35.759  0.00  0.00     0.228 C 
BRANCH  10  14
ATOM     14  C6  IDU d1623      60.870  43.997  36.675  0.00  0.00     0.170 C 
ATOM     15  O62 IDU d1623      61.329  45.082  37.065  0.00  0.00    -0.648 OA
BRANCH  14  16
ATOM     16  O61 IDU d1623      59.653  43.718  36.658  0.00  0.00    -0.774 OA
ENDBRANCH  14  16
ENDBRANCH  10  14
BRANCH  12  18
ATOM     18  O3  IDU d1623      63.022  41.401  34.054  0.00  0.00    -0.393 OA
ATOM     19  H   IDU d1623      62.593  41.635  33.216  0.00  0.00     0.210 HD
ENDBRANCH  12  18
BRANCH  13  20
ATOM     20  O2  IDU d1623      65.190  43.250  36.305  0.00  0.00    -0.244 OA
BRANCH  20  21
ATOM     21  S   IDU d1623      66.624  43.845  35.535  0.00  0.00     0.252 S 
ATOM     22  O3S IDU d1623      67.234  42.830  34.761  0.00  0.00    -0.572 OA
ATOM     23  O1S IDU d1623      67.465  44.360  36.573  0.00  0.00    -0.572 OA
ATOM     24  O2S IDU d1623      66.304  44.919  34.607  0.00  0.00    -0.572 OA
ENDBRANCH  20  21
ENDBRANCH  13  20
ENDBRANCH   7   8
ENDBRANCH   4   7
BRANCH   3  25
ATOM     25  C6  SGN d5702      64.461  42.062  40.599  0.00  0.00     0.227 C 
BRANCH  25  26
ATOM     26  O6  SGN d5702      63.101  42.038  41.005  0.00  0.00    -0.254 OA
BRANCH  26  27
ATOM     27  S2  SGN d5702      62.331  43.533  41.414  0.00  0.00     0.251 S 
ATOM     28  O4S SGN d5702      63.203  44.380  42.161  0.00  0.00    -0.572 OA
ATOM     29  O5S SGN d5702      61.166  43.243  42.202  0.00  0.00    -0.572 OA
ATOM     30  O6S SGN d5702      62.023  44.154  40.159  0.00  0.00    -0.572 OA
ENDBRANCH  26  27
ENDBRANCH  25  26
ENDBRANCH   3  25
BRANCH   5  31
ATOM     31  O3  SGN d5702      63.690  38.159  37.674  0.00  0.00    -0.391 OA
ATOM     32  H   SGN d5702      63.198  38.879  37.250  0.00  0.00     0.210 HD
ENDBRANCH   5  31
BRANCH   2  33
ATOM     33  N   SGN d5702      64.045  36.548  39.937  0.00  0.00    -0.189 NA
ATOM     34  H   SGN d5702      64.601  36.253  40.741  0.00  0.00     0.143 HD
BRANCH  33  35
ATOM     35  S1  SGN d5702      62.536  35.631  39.919  0.00  0.00     0.183 S 
ATOM     36  O1S SGN d5702      62.857  34.218  39.974  0.00  0.00    -0.582 OA
ATOM     37  O2S SGN d5702      61.867  35.871  38.682  0.00  0.00    -0.582 OA
ATOM     38  O3S SGN d5702      61.788  36.106  41.067  0.00  0.00    -0.582 OA
ENDBRANCH  33  35
ENDBRANCH   2  33
BRANCH   6  39
ATOM     39  O1  SGN d5702      65.886  38.127  41.297  0.00  0.00    -0.369 OA
ATOM     40  H   SGN d5702      66.225  38.208  42.202  0.00  0.00     0.212 HD
ENDBRANCH   6  39
TORSDOF 14
ENDMDL
MODEL 75
REMARK VINA RESULT:      -3.4      3.818      8.487
REMARK  14 active torsions:
REMARK  status: ('A' for Active; 'I' for Inactive)
REMARK    1  A    between atoms: C5_1  and  C6_23 
REMARK    2  A    between atoms: S2_5  and  O6_7 
REMARK    3  A    between atoms: O1_6  and  C1_35 
REMARK    4  A    between atoms: O6_7  and  C6_21 
REMARK    5  A    between atoms: O2_9  and  C2_28 
REMARK    6  A    between atoms: O2_9  and  S_13 
REMARK    7  A    between atoms: C3_10  and  O3_20 
REMARK    8  A    between atoms: C1_11  and  O4_12 
REMARK    9  A    between atoms: O4_12  and  C4_19 
REMARK   10  A    between atoms: C2_15  and  N_29 
REMARK   11  A    between atoms: C5_17  and  C6_21 
REMARK   12  A    between atoms: C6_23  and  O61_33 
REMARK   13  A    between atoms: O3_24  and  C3_26 
REMARK   14  A    between atoms: S1_27  and  N_29 
ROOT
ATOM      1  O5  SGN d5702      61.034  40.037  37.036  0.00  0.00    -0.350 OA
ATOM      2  C2  SGN d5702      61.963  42.247  37.164  0.00  0.00     0.160 C 
ATOM      3  C5  SGN d5702      62.234  39.426  37.445  0.00  0.00     0.181 C 
ATOM      4  C4  SGN d5702      63.022  40.408  38.335  0.00  0.00     0.186 C 
ATOM      5  C3  SGN d5702      63.318  41.675  37.489  0.00  0.00     0.173 C 
ATOM      6  C1  SGN d5702      61.166  41.269  36.321  0.00  0.00     0.278 C 
ENDROOT
BRANCH   4   7
ATOM      7  O4  SGN d5702      64.235  39.711  38.733  0.00  0.00    -0.348 OA
BRANCH   7   8
ATOM      8  C1  IDU d1623      64.729  39.575  40.049  0.00  0.00     0.294 C 
ATOM      9  O5  IDU d1623      63.853  38.794  40.925  0.00  0.00    -0.343 OA
ATOM     10  C5  IDU d1623      64.295  38.755  42.328  0.00  0.00     0.224 C 
ATOM     11  C4  IDU d1623      65.683  38.097  42.393  0.00  0.00     0.077 C 
ATOM     12  C3  IDU d1623      66.666  38.878  41.506  0.00  0.00     0.156 C 
ATOM     13  C2  IDU d1623      66.103  38.885  40.076  0.00  0.00     0.228 C 
BRANCH  10  14
ATOM     14  C6  IDU d1623      63.352  37.948  43.178  0.00  0.00     0.170 C 
ATOM     15  O62 IDU d1623      63.465  36.713  43.168  0.00  0.00    -0.648 OA
BRANCH  14  16
ATOM     16  O61 IDU d1623      62.502  38.568  43.851  0.00  0.00    -0.774 OA
ENDBRANCH  14  16
ENDBRANCH  10  14
BRANCH  12  18
ATOM     18  O3  IDU d1623      66.785  40.189  41.982  0.00  0.00    -0.393 OA
ATOM     19  H   IDU d1623      67.626  40.567  41.681  0.00  0.00     0.210 HD
ENDBRANCH  12  18
BRANCH  13  20
ATOM     20  O2  IDU d1623      65.923  37.563  39.628  0.00  0.00    -0.244 OA
BRANCH  20  21
ATOM     21  S   IDU d1623      66.843  37.031  38.260  0.00  0.00     0.252 S 
ATOM     22  O3S IDU d1623      66.174  37.349  37.054  0.00  0.00    -0.572 OA
ATOM     23  O1S IDU d1623      67.072  35.629  38.437  0.00  0.00    -0.572 OA
ATOM     24  O2S IDU d1623      68.124  37.718  38.200  0.00  0.00    -0.572 OA
ENDBRANCH  20  21
ENDBRANCH  13  20
ENDBRANCH   7   8
ENDBRANCH   4   7
BRANCH   3  25
ATOM     25  C6  SGN d5702      61.865  38.172  38.175  0.00  0.00     0.227 C 
BRANCH  25  26
ATOM     26  O6  SGN d5702      62.944  37.296  37.889  0.00  0.00    -0.254 OA
BRANCH  26  27
ATOM     27  S2  SGN d5702      62.912  35.698  38.553  0.00  0.00     0.251 S 
ATOM     28  O4S SGN d5702      63.258  35.703  39.938  0.00  0.00    -0.572 OA
ATOM     29  O5S SGN d5702      63.856  34.889  37.835  0.00  0.00    -0.572 OA
ATOM     30  O6S SGN d5702      61.558  35.253  38.402  0.00  0.00    -0.572 OA
ENDBRANCH  26  27
ENDBRANCH  25  26
ENDBRANCH   3  25
BRANCH   5  31
ATOM     31  O3  SGN d5702      64.027  42.612  38.264  0.00  0.00    -0.391 OA
ATOM     32  H   SGN d5702      63.799  42.497  39.199  0.00  0.00     0.210 HD
ENDBRANCH   5  31
BRANCH   2  33
ATOM     33  N   SGN d5702      62.102  43.449  36.410  0.00  0.00    -0.189 NA
ATOM     34  H   SGN d5702      61.555  43.365  35.553  0.00  0.00     0.143 HD
BRANCH  33  35
ATOM     35  S1  SGN d5702      61.541  44.862  37.309  0.00  0.00     0.183 S 
ATOM     36  O1S SGN d5702      62.298  46.017  36.868  0.00  0.00    -0.582 OA
ATOM     37  O2S SGN d5702      61.822  44.667  38.694  0.00  0.00    -0.582 OA
ATOM     38  O3S SGN d5702      60.121  44.952  37.028  0.00  0.00    -0.582 OA
ENDBRANCH  33  35
ENDBRANCH   2  33
BRANCH   6  39
ATOM     39  O1  SGN d5702      61.743  41.047  35.057  0.00  0.00    -0.369 OA
ATOM     40  H   SGN d5702      61.173  40.456  34.541  0.00  0.00     0.212 HD
ENDBRANCH   6  39
TORSDOF 14
ENDMDL
MODEL 76
REMARK VINA RESULT:      -3.3      3.650      9.171
REMARK  14 active torsions:
REMARK  status: ('A' for Active; 'I' for Inactive)
REMARK    1  A    between atoms: C5_1  and  C6_23 
REMARK    2  A    between atoms: S2_5  and  O6_7 
REMARK    3  A    between atoms: O1_6  and  C1_35 
REMARK    4  A    between atoms: O6_7  and  C6_21 
REMARK    5  A    between atoms: O2_9  and  C2_28 
REMARK    6  A    between atoms: O2_9  and  S_13 
REMARK    7  A    between atoms: C3_10  and  O3_20 
REMARK    8  A    between atoms: C1_11  and  O4_12 
REMARK    9  A    between atoms: O4_12  and  C4_19 
REMARK   10  A    between atoms: C2_15  and  N_29 
REMARK   11  A    between atoms: C5_17  and  C6_21 
REMARK   12  A    between atoms: C6_23  and  O61_33 
REMARK   13  A    between atoms: O3_24  and  C3_26 
REMARK   14  A    between atoms: S1_27  and  N_29 
ROOT
ATOM      1  O5  SGN d5702      61.660  40.035  36.765  0.00  0.00    -0.350 OA
ATOM      2  C2  SGN d5702      62.215  42.271  37.438  0.00  0.00     0.160 C 
ATOM      3  C5  SGN d5702      62.449  39.452  37.774  0.00  0.00     0.181 C 
ATOM      4  C4  SGN d5702      62.531  40.420  38.971  0.00  0.00     0.186 C 
ATOM      5  C3  SGN d5702      63.177  41.738  38.467  0.00  0.00     0.173 C 
ATOM      6  C1  SGN d5702      62.098  41.304  36.274  0.00  0.00     0.278 C 
ENDROOT
BRANCH   4   7
ATOM      7  O4  SGN d5702      63.343  39.754  39.977  0.00  0.00    -0.348 OA
BRANCH   7   8
ATOM      8  C1  IDU d1623      62.998  39.550  41.332  0.00  0.00     0.294 C 
ATOM      9  O5  IDU d1623      61.920  38.577  41.520  0.00  0.00    -0.343 OA
ATOM     10  C5  IDU d1623      61.467  38.453  42.914  0.00  0.00     0.224 C 
ATOM     11  C4  IDU d1623      62.646  37.978  43.779  0.00  0.00     0.077 C 
ATOM     12  C3  IDU d1623      63.816  38.965  43.644  0.00  0.00     0.156 C 
ATOM     13  C2  IDU d1623      64.193  39.044  42.156  0.00  0.00     0.228 C 
BRANCH  10  14
ATOM     14  C6  IDU d1623      60.354  37.448  43.043  0.00  0.00     0.170 C 
ATOM     15  O62 IDU d1623      60.650  36.281  43.338  0.00  0.00    -0.648 OA
BRANCH  14  16
ATOM     16  O61 IDU d1623      59.188  37.846  42.844  0.00  0.00    -0.774 OA
ENDBRANCH  14  16
ENDBRANCH  10  14
BRANCH  12  18
ATOM     18  O3  IDU d1623      63.420  40.225  44.108  0.00  0.00    -0.393 OA
ATOM     19  H   IDU d1623      63.905  40.438  44.920  0.00  0.00     0.210 HD
ENDBRANCH  12  18
BRANCH  13  20
ATOM     20  O2  IDU d1623      64.526  37.762  41.680  0.00  0.00    -0.244 OA
BRANCH  20  21
ATOM     21  S   IDU d1623      66.080  37.541  40.947  0.00  0.00     0.252 S 
ATOM     22  O3S IDU d1623      65.996  36.639  39.860  0.00  0.00    -0.572 OA
ATOM     23  O1S IDU d1623      66.967  37.109  41.985  0.00  0.00    -0.572 OA
ATOM     24  O2S IDU d1623      66.573  38.793  40.392  0.00  0.00    -0.572 OA
ENDBRANCH  20  21
ENDBRANCH  13  20
ENDBRANCH   7   8
ENDBRANCH   4   7
BRANCH   3  25
ATOM     25  C6  SGN d5702      61.808  38.151  38.141  0.00  0.00     0.227 C 
BRANCH  25  26
ATOM     26  O6  SGN d5702      62.909  37.261  38.249  0.00  0.00    -0.254 OA
BRANCH  26  27
ATOM     27  S2  SGN d5702      62.612  35.632  38.755  0.00  0.00     0.251 S 
ATOM     28  O4S SGN d5702      61.371  35.147  38.244  0.00  0.00    -0.572 OA
ATOM     29  O5S SGN d5702      62.575  35.602  40.190  0.00  0.00    -0.572 OA
ATOM     30  O6S SGN d5702      63.688  34.864  38.201  0.00  0.00    -0.572 OA
ENDBRANCH  26  27
ENDBRANCH  25  26
ENDBRANCH   3  25
BRANCH   5  31
ATOM     31  O3  SGN d5702      63.262  42.663  39.524  0.00  0.00    -0.391 OA
ATOM     32  H   SGN d5702      62.370  42.942  39.783  0.00  0.00     0.210 HD
ENDBRANCH   5  31
BRANCH   2  33
ATOM     33  N   SGN d5702      62.684  43.513  36.919  0.00  0.00    -0.189 NA
ATOM     34  H   SGN d5702      62.723  43.451  35.901  0.00  0.00     0.143 HD
BRANCH  33  35
ATOM     35  S1  SGN d5702      61.630  44.858  37.368  0.00  0.00     0.183 S 
ATOM     36  O1S SGN d5702      62.294  46.098  37.017  0.00  0.00    -0.582 OA
ATOM     37  O2S SGN d5702      61.454  44.850  38.783  0.00  0.00    -0.582 OA
ATOM     38  O3S SGN d5702      60.394  44.630  36.643  0.00  0.00    -0.582 OA
ENDBRANCH  33  35
ENDBRANCH   2  33
BRANCH   6  39
ATOM     39  O1  SGN d5702      63.304  41.168  35.560  0.00  0.00    -0.369 OA
ATOM     40  H   SGN d5702      63.322  41.808  34.831  0.00  0.00     0.212 HD
ENDBRANCH   6  39
TORSDOF 14
ENDMDL
MODEL 77
REMARK VINA RESULT:      -3.3      2.318      2.999
REMARK  14 active torsions:
REMARK  status: ('A' for Active; 'I' for Inactive)
REMARK    1  A    between atoms: C5_1  and  C6_23 
REMARK    2  A    between atoms: S2_5  and  O6_7 
REMARK    3  A    between atoms: O1_6  and  C1_35 
REMARK    4  A    between atoms: O6_7  and  C6_21 
REMARK    5  A    between atoms: O2_9  and  C2_28 
REMARK    6  A    between atoms: O2_9  and  S_13 
REMARK    7  A    between atoms: C3_10  and  O3_20 
REMARK    8  A    between atoms: C1_11  and  O4_12 
REMARK    9  A    between atoms: O4_12  and  C4_19 
REMARK   10  A    between atoms: C2_15  and  N_29 
REMARK   11  A    between atoms: C5_17  and  C6_21 
REMARK   12  A    between atoms: C6_23  and  O61_33 
REMARK   13  A    between atoms: O3_24  and  C3_26 
REMARK   14  A    between atoms: S1_27  and  N_29 
ROOT
ATOM      1  O5  SGN d5702      62.490  41.072  39.456  0.00  0.00    -0.350 OA
ATOM      2  C2  SGN d5702      63.722  39.039  39.117  0.00  0.00     0.160 C 
ATOM      3  C5  SGN d5702      63.473  41.863  38.834  0.00  0.00     0.181 C 
ATOM      4  C4  SGN d5702      64.223  41.008  37.793  0.00  0.00     0.186 C 
ATOM      5  C3  SGN d5702      64.878  39.818  38.546  0.00  0.00     0.173 C 
ATOM      6  C1  SGN d5702      62.954  39.889  40.113  0.00  0.00     0.278 C 
ENDROOT
BRANCH   4   7
ATOM      7  O4  SGN d5702      65.208  41.885  37.180  0.00  0.00    -0.348 OA
BRANCH   7   8
ATOM      8  C1  IDU d1623      65.772  41.741  35.893  0.00  0.00     0.294 C 
ATOM      9  O5  IDU d1623      64.791  41.851  34.811  0.00  0.00    -0.343 OA
ATOM     10  C5  IDU d1623      65.346  41.575  33.475  0.00  0.00     0.224 C 
ATOM     11  C4  IDU d1623      66.450  42.602  33.176  0.00  0.00     0.077 C 
ATOM     12  C3  IDU d1623      67.529  42.533  34.268  0.00  0.00     0.156 C 
ATOM     13  C2  IDU d1623      66.847  42.804  35.618  0.00  0.00     0.228 C 
BRANCH  10  14
ATOM     14  C6  IDU d1623      64.292  41.693  32.408  0.00  0.00     0.170 C 
ATOM     15  O62 IDU d1623      63.593  42.718  32.385  0.00  0.00    -0.648 OA
BRANCH  14  16
ATOM     16  O61 IDU d1623      64.175  40.748  31.601  0.00  0.00    -0.774 OA
ENDBRANCH  14  16
ENDBRANCH  10  14
BRANCH  12  18
ATOM     18  O3  IDU d1623      68.111  41.260  34.270  0.00  0.00    -0.393 OA
ATOM     19  H   IDU d1623      67.639  40.690  34.896  0.00  0.00     0.210 HD
ENDBRANCH  12  18
BRANCH  13  20
ATOM     20  O2  IDU d1623      66.208  44.058  35.586  0.00  0.00    -0.244 OA
BRANCH  20  21
ATOM     21  S   IDU d1623      67.101  45.445  36.114  0.00  0.00     0.252 S 
ATOM     22  O3S IDU d1623      66.346  46.202  37.041  0.00  0.00    -0.572 OA
ATOM     23  O1S IDU d1623      67.463  46.175  34.937  0.00  0.00    -0.572 OA
ATOM     24  O2S IDU d1623      68.311  45.045  36.815  0.00  0.00    -0.572 OA
ENDBRANCH  20  21
ENDBRANCH  13  20
ENDBRANCH   7   8
ENDBRANCH   4   7
BRANCH   3  25
ATOM     25  C6  SGN d5702      62.772  43.028  38.209  0.00  0.00     0.227 C 
BRANCH  25  26
ATOM     26  O6  SGN d5702      61.891  42.420  37.277  0.00  0.00    -0.254 OA
BRANCH  26  27
ATOM     27  S2  SGN d5702      61.035  43.433  36.164  0.00  0.00     0.251 S 
ATOM     28  O4S SGN d5702      59.849  42.796  35.689  0.00  0.00    -0.572 OA
ATOM     29  O5S SGN d5702      61.896  43.716  35.052  0.00  0.00    -0.572 OA
ATOM     30  O6S SGN d5702      60.678  44.601  36.915  0.00  0.00    -0.572 OA
ENDBRANCH  26  27
ENDBRANCH  25  26
ENDBRANCH   3  25
BRANCH   5  31
ATOM     31  O3  SGN d5702      65.566  38.997  37.635  0.00  0.00    -0.391 OA
ATOM     32  H   SGN d5702      65.233  39.157  36.738  0.00  0.00     0.210 HD
ENDBRANCH   5  31
BRANCH   2  33
ATOM     33  N   SGN d5702      64.196  37.888  39.811  0.00  0.00    -0.189 NA
ATOM     34  H   SGN d5702      63.847  37.914  40.769  0.00  0.00     0.143 HD
BRANCH  33  35
ATOM     35  S1  SGN d5702      63.658  36.388  39.048  0.00  0.00     0.183 S 
ATOM     36  O1S SGN d5702      64.087  35.275  39.871  0.00  0.00    -0.582 OA
ATOM     37  O2S SGN d5702      64.303  36.260  37.782  0.00  0.00    -0.582 OA
ATOM     38  O3S SGN d5702      62.217  36.514  38.937  0.00  0.00    -0.582 OA
ENDBRANCH  33  35
ENDBRANCH   2  33
BRANCH   6  39
ATOM     39  O1  SGN d5702      63.721  40.221  41.246  0.00  0.00    -0.369 OA
ATOM     40  H   SGN d5702      63.686  41.180  41.389  0.00  0.00     0.212 HD
ENDBRANCH   6  39
TORSDOF 14
ENDMDL
MODEL 78
REMARK VINA RESULT:      -3.3      3.853      5.868
REMARK  14 active torsions:
REMARK  status: ('A' for Active; 'I' for Inactive)
REMARK    1  A    between atoms: C5_1  and  C6_23 
REMARK    2  A    between atoms: S2_5  and  O6_7 
REMARK    3  A    between atoms: O1_6  and  C1_35 
REMARK    4  A    between atoms: O6_7  and  C6_21 
REMARK    5  A    between atoms: O2_9  and  C2_28 
REMARK    6  A    between atoms: O2_9  and  S_13 
REMARK    7  A    between atoms: C3_10  and  O3_20 
REMARK    8  A    between atoms: C1_11  and  O4_12 
REMARK    9  A    between atoms: O4_12  and  C4_19 
REMARK   10  A    between atoms: C2_15  and  N_29 
REMARK   11  A    between atoms: C5_17  and  C6_21 
REMARK   12  A    between atoms: C6_23  and  O61_33 
REMARK   13  A    between atoms: O3_24  and  C3_26 
REMARK   14  A    between atoms: S1_27  and  N_29 
ROOT
ATOM      1  O5  SGN d5702      62.583  39.689  38.186  0.00  0.00    -0.350 OA
ATOM      2  C2  SGN d5702      63.785  39.133  40.189  0.00  0.00     0.160 C 
ATOM      3  C5  SGN d5702      62.482  41.049  38.532  0.00  0.00     0.181 C 
ATOM      4  C4  SGN d5702      63.679  41.432  39.426  0.00  0.00     0.186 C 
ATOM      5  C3  SGN d5702      63.620  40.542  40.696  0.00  0.00     0.173 C 
ATOM      6  C1  SGN d5702      62.631  38.763  39.276  0.00  0.00     0.278 C 
ENDROOT
BRANCH   4   7
ATOM      7  O4  SGN d5702      63.522  42.845  39.731  0.00  0.00    -0.348 OA
BRANCH   7   8
ATOM      8  C1  IDU d1623      64.486  43.857  39.530  0.00  0.00     0.294 C 
ATOM      9  O5  IDU d1623      64.823  44.071  38.121  0.00  0.00    -0.343 OA
ATOM     10  C5  IDU d1623      65.917  45.032  37.910  0.00  0.00     0.224 C 
ATOM     11  C4  IDU d1623      65.493  46.398  38.474  0.00  0.00     0.077 C 
ATOM     12  C3  IDU d1623      65.139  46.254  39.963  0.00  0.00     0.156 C 
ATOM     13  C2  IDU d1623      64.014  45.214  40.077  0.00  0.00     0.228 C 
BRANCH  10  14
ATOM     14  C6  IDU d1623      66.224  45.203  36.446  0.00  0.00     0.170 C 
ATOM     15  O62 IDU d1623      66.534  44.195  35.792  0.00  0.00    -0.648 OA
BRANCH  14  16
ATOM     16  O61 IDU d1623      66.152  46.353  35.968  0.00  0.00    -0.774 OA
ENDBRANCH  14  16
ENDBRANCH  10  14
BRANCH  12  18
ATOM     18  O3  IDU d1623      66.266  45.823  40.672  0.00  0.00    -0.393 OA
ATOM     19  H   IDU d1623      66.062  45.799  41.620  0.00  0.00     0.210 HD
ENDBRANCH  12  18
BRANCH  13  20
ATOM     20  O2  IDU d1623      62.907  45.621  39.308  0.00  0.00    -0.244 OA
BRANCH  20  21
ATOM     21  S   IDU d1623      61.403  45.899  40.122  0.00  0.00     0.252 S 
ATOM     22  O3S IDU d1623      61.436  47.125  40.828  0.00  0.00    -0.572 OA
ATOM     23  O1S IDU d1623      61.171  44.760  40.958  0.00  0.00    -0.572 OA
ATOM     24  O2S IDU d1623      60.312  46.016  39.166  0.00  0.00    -0.572 OA
ENDBRANCH  20  21
ENDBRANCH  13  20
ENDBRANCH   7   8
ENDBRANCH   4   7
BRANCH   3  25
ATOM     25  C6  SGN d5702      62.458  41.829  37.254  0.00  0.00     0.227 C 
BRANCH  25  26
ATOM     26  O6  SGN d5702      61.394  42.748  37.450  0.00  0.00    -0.254 OA
BRANCH  26  27
ATOM     27  S2  SGN d5702      60.522  43.315  36.067  0.00  0.00     0.251 S 
ATOM     28  O4S SGN d5702      61.398  43.909  35.109  0.00  0.00    -0.572 OA
ATOM     29  O5S SGN d5702      59.565  44.292  36.501  0.00  0.00    -0.572 OA
ATOM     30  O6S SGN d5702      59.918  42.146  35.497  0.00  0.00    -0.572 OA
ENDBRANCH  26  27
ENDBRANCH  25  26
ENDBRANCH   3  25
BRANCH   5  31
ATOM     31  O3  SGN d5702      64.702  40.844  41.542  0.00  0.00    -0.391 OA
ATOM     32  H   SGN d5702      64.367  41.131  42.406  0.00  0.00     0.210 HD
ENDBRANCH   5  31
BRANCH   2  33
ATOM     33  N   SGN d5702      63.783  38.212  41.277  0.00  0.00    -0.189 NA
ATOM     34  H   SGN d5702      62.985  37.584  41.176  0.00  0.00     0.143 HD
BRANCH  33  35
ATOM     35  S1  SGN d5702      65.263  37.250  41.331  0.00  0.00     0.183 S 
ATOM     36  O1S SGN d5702      65.648  36.925  39.972  0.00  0.00    -0.582 OA
ATOM     37  O2S SGN d5702      64.988  36.023  42.005  0.00  0.00    -0.582 OA
ATOM     38  O3S SGN d5702      66.228  38.076  42.032  0.00  0.00    -0.582 OA
ENDBRANCH  33  35
ENDBRANCH   2  33
BRANCH   6  39
ATOM     39  O1  SGN d5702      61.395  38.729  39.949  0.00  0.00    -0.369 OA
ATOM     40  H   SGN d5702      61.529  38.401  40.852  0.00  0.00     0.212 HD
ENDBRANCH   6  39
TORSDOF 14
ENDMDL
MODEL 79
REMARK VINA RESULT:      -3.3      3.908      8.397
REMARK  14 active torsions:
REMARK  status: ('A' for Active; 'I' for Inactive)
REMARK    1  A    between atoms: C5_1  and  C6_23 
REMARK    2  A    between atoms: S2_5  and  O6_7 
REMARK    3  A    between atoms: O1_6  and  C1_35 
REMARK    4  A    between atoms: O6_7  and  C6_21 
REMARK    5  A    between atoms: O2_9  and  C2_28 
REMARK    6  A    between atoms: O2_9  and  S_13 
REMARK    7  A    between atoms: C3_10  and  O3_20 
REMARK    8  A    between atoms: C1_11  and  O4_12 
REMARK    9  A    between atoms: O4_12  and  C4_19 
REMARK   10  A    between atoms: C2_15  and  N_29 
REMARK   11  A    between atoms: C5_17  and  C6_21 
REMARK   12  A    between atoms: C6_23  and  O61_33 
REMARK   13  A    between atoms: O3_24  and  C3_26 
REMARK   14  A    between atoms: S1_27  and  N_29 
ROOT
ATOM      1  O5  SGN d5702      62.392  44.915  38.433  0.00  0.00    -0.350 OA
ATOM      2  C2  SGN d5702      62.582  43.687  36.379  0.00  0.00     0.160 C 
ATOM      3  C5  SGN d5702      62.171  43.755  39.197  0.00  0.00     0.181 C 
ATOM      4  C4  SGN d5702      62.859  42.559  38.507  0.00  0.00     0.186 C 
ATOM      5  C3  SGN d5702      62.234  42.408  37.094  0.00  0.00     0.173 C 
ATOM      6  C1  SGN d5702      61.941  44.873  37.076  0.00  0.00     0.278 C 
ENDROOT
BRANCH   4   7
ATOM      7  O4  SGN d5702      62.607  41.403  39.352  0.00  0.00    -0.348 OA
BRANCH   7   8
ATOM      8  C1  IDU d1623      63.535  40.393  39.688  0.00  0.00     0.294 C 
ATOM      9  O5  IDU d1623      64.749  40.905  40.328  0.00  0.00    -0.343 OA
ATOM     10  C5  IDU d1623      65.776  39.878  40.565  0.00  0.00     0.224 C 
ATOM     11  C4  IDU d1623      65.198  38.808  41.507  0.00  0.00     0.077 C 
ATOM     12  C3  IDU d1623      63.924  38.211  40.890  0.00  0.00     0.156 C 
ATOM     13  C2  IDU d1623      62.933  39.361  40.656  0.00  0.00     0.228 C 
BRANCH  10  14
ATOM     14  C6  IDU d1623      67.000  40.464  41.214  0.00  0.00     0.170 C 
ATOM     15  O62 IDU d1623      67.527  41.453  40.682  0.00  0.00    -0.648 OA
BRANCH  14  16
ATOM     16  O61 IDU d1623      67.422  39.921  42.255  0.00  0.00    -0.774 OA
ENDBRANCH  14  16
ENDBRANCH  10  14
BRANCH  12  18
ATOM     18  O3  IDU d1623      64.239  37.592  39.674  0.00  0.00    -0.393 OA
ATOM     19  H   IDU d1623      65.076  37.110  39.764  0.00  0.00     0.210 HD
ENDBRANCH  12  18
BRANCH  13  20
ATOM     20  O2  IDU d1623      62.672  40.021  41.872  0.00  0.00    -0.244 OA
BRANCH  20  21
ATOM     21  S   IDU d1623      61.491  39.334  42.937  0.00  0.00     0.252 S 
ATOM     22  O3S IDU d1623      60.654  40.342  43.471  0.00  0.00    -0.572 OA
ATOM     23  O1S IDU d1623      62.212  38.599  43.933  0.00  0.00    -0.572 OA
ATOM     24  O2S IDU d1623      60.614  38.423  42.218  0.00  0.00    -0.572 OA
ENDBRANCH  20  21
ENDBRANCH  13  20
ENDBRANCH   7   8
ENDBRANCH   4   7
BRANCH   3  25
ATOM     25  C6  SGN d5702      62.723  44.013  40.564  0.00  0.00     0.227 C 
BRANCH  25  26
ATOM     26  O6  SGN d5702      61.562  44.102  41.376  0.00  0.00    -0.254 OA
BRANCH  26  27
ATOM     27  S2  SGN d5702      60.939  45.670  41.763  0.00  0.00     0.251 S 
ATOM     28  O4S SGN d5702      60.126  45.630  42.935  0.00  0.00    -0.572 OA
ATOM     29  O5S SGN d5702      60.150  46.131  40.657  0.00  0.00    -0.572 OA
ATOM     30  O6S SGN d5702      62.094  46.483  42.013  0.00  0.00    -0.572 OA
ENDBRANCH  26  27
ENDBRANCH  25  26
ENDBRANCH   3  25
BRANCH   5  31
ATOM     31  O3  SGN d5702      62.840  41.335  36.416  0.00  0.00    -0.391 OA
ATOM     32  H   SGN d5702      63.784  41.521  36.293  0.00  0.00     0.210 HD
ENDBRANCH   5  31
BRANCH   2  33
ATOM     33  N   SGN d5702      62.088  43.656  35.042  0.00  0.00    -0.189 NA
ATOM     34  H   SGN d5702      61.427  44.424  34.918  0.00  0.00     0.143 HD
BRANCH  33  35
ATOM     35  S1  SGN d5702      63.384  43.820  33.854  0.00  0.00     0.183 S 
ATOM     36  O1S SGN d5702      63.662  42.512  33.294  0.00  0.00    -0.582 OA
ATOM     37  O2S SGN d5702      64.565  44.262  34.521  0.00  0.00    -0.582 OA
ATOM     38  O3S SGN d5702      62.891  44.779  32.883  0.00  0.00    -0.582 OA
ENDBRANCH  33  35
ENDBRANCH   2  33
BRANCH   6  39
ATOM     39  O1  SGN d5702      60.535  44.837  37.023  0.00  0.00    -0.369 OA
ATOM     40  H   SGN d5702      60.226  45.366  36.271  0.00  0.00     0.212 HD
ENDBRANCH   6  39
TORSDOF 14
ENDMDL
MODEL 80
REMARK VINA RESULT:      -3.3      2.703      5.998
REMARK  14 active torsions:
REMARK  status: ('A' for Active; 'I' for Inactive)
REMARK    1  A    between atoms: C5_1  and  C6_23 
REMARK    2  A    between atoms: S2_5  and  O6_7 
REMARK    3  A    between atoms: O1_6  and  C1_35 
REMARK    4  A    between atoms: O6_7  and  C6_21 
REMARK    5  A    between atoms: O2_9  and  C2_28 
REMARK    6  A    between atoms: O2_9  and  S_13 
REMARK    7  A    between atoms: C3_10  and  O3_20 
REMARK    8  A    between atoms: C1_11  and  O4_12 
REMARK    9  A    between atoms: O4_12  and  C4_19 
REMARK   10  A    between atoms: C2_15  and  N_29 
REMARK   11  A    between atoms: C5_17  and  C6_21 
REMARK   12  A    between atoms: C6_23  and  O61_33 
REMARK   13  A    between atoms: O3_24  and  C3_26 
REMARK   14  A    between atoms: S1_27  and  N_29 
ROOT
ATOM      1  O5  SGN d5702      63.514  40.222  37.975  0.00  0.00    -0.350 OA
ATOM      2  C2  SGN d5702      62.227  41.845  36.762  0.00  0.00     0.160 C 
ATOM      3  C5  SGN d5702      64.005  39.620  36.801  0.00  0.00     0.181 C 
ATOM      4  C4  SGN d5702      64.051  40.674  35.677  0.00  0.00     0.186 C 
ATOM      5  C3  SGN d5702      62.604  41.192  35.459  0.00  0.00     0.173 C 
ATOM      6  C1  SGN d5702      62.219  40.821  37.882  0.00  0.00     0.278 C 
ENDROOT
BRANCH   4   7
ATOM      7  O4  SGN d5702      64.579  39.994  34.505  0.00  0.00    -0.348 OA
BRANCH   7   8
ATOM      8  C1  IDU d1623      65.410  40.559  33.512  0.00  0.00     0.294 C 
ATOM      9  O5  IDU d1623      66.801  40.726  33.939  0.00  0.00    -0.343 OA
ATOM     10  C5  IDU d1623      67.644  41.430  32.960  0.00  0.00     0.224 C 
ATOM     11  C4  IDU d1623      67.677  40.615  31.656  0.00  0.00     0.077 C 
ATOM     12  C3  IDU d1623      66.245  40.414  31.137  0.00  0.00     0.156 C 
ATOM     13  C2  IDU d1623      65.443  39.701  32.237  0.00  0.00     0.228 C 
BRANCH  10  14
ATOM     14  C6  IDU d1623      69.056  41.580  33.458  0.00  0.00     0.170 C 
ATOM     15  O62 IDU d1623      69.969  41.071  32.789  0.00  0.00    -0.648 OA
BRANCH  14  16
ATOM     16  O61 IDU d1623      69.233  42.208  34.521  0.00  0.00    -0.774 OA
ENDBRANCH  14  16
ENDBRANCH  10  14
BRANCH  12  18
ATOM     18  O3  IDU d1623      65.670  41.660  30.854  0.00  0.00    -0.393 OA
ATOM     19  H   IDU d1623      66.206  42.118  30.188  0.00  0.00     0.210 HD
ENDBRANCH  12  18
BRANCH  13  20
ATOM     20  O2  IDU d1623      66.063  38.480  32.563  0.00  0.00    -0.244 OA
BRANCH  20  21
ATOM     21  S   IDU d1623      65.789  37.121  31.524  0.00  0.00     0.252 S 
ATOM     22  O3S IDU d1623      64.695  37.365  30.660  0.00  0.00    -0.572 OA
ATOM     23  O1S IDU d1623      65.607  35.983  32.373  0.00  0.00    -0.572 OA
ATOM     24  O2S IDU d1623      66.937  36.890  30.661  0.00  0.00    -0.572 OA
ENDBRANCH  20  21
ENDBRANCH  13  20
ENDBRANCH   7   8
ENDBRANCH   4   7
BRANCH   3  25
ATOM     25  C6  SGN d5702      65.361  39.073  37.119  0.00  0.00     0.227 C 
BRANCH  25  26
ATOM     26  O6  SGN d5702      65.733  39.777  38.295  0.00  0.00    -0.254 OA
BRANCH  26  27
ATOM     27  S2  SGN d5702      67.044  40.903  38.207  0.00  0.00     0.251 S 
ATOM     28  O4S SGN d5702      67.856  40.668  37.057  0.00  0.00    -0.572 OA
ATOM     29  O5S SGN d5702      67.847  40.758  39.388  0.00  0.00    -0.572 OA
ATOM     30  O6S SGN d5702      66.427  42.193  38.099  0.00  0.00    -0.572 OA
ENDBRANCH  26  27
ENDBRANCH  25  26
ENDBRANCH   3  25
BRANCH   5  31
ATOM     31  O3  SGN d5702      62.594  42.170  34.447  0.00  0.00    -0.391 OA
ATOM     32  H   SGN d5702      61.827  42.030  33.870  0.00  0.00     0.210 HD
ENDBRANCH   5  31
BRANCH   2  33
ATOM     33  N   SGN d5702      60.916  42.398  36.677  0.00  0.00    -0.189 NA
ATOM     34  H   SGN d5702      60.328  41.962  37.388  0.00  0.00     0.143 HD
BRANCH  33  35
ATOM     35  S1  SGN d5702      60.918  44.146  36.932  0.00  0.00     0.183 S 
ATOM     36  O1S SGN d5702      61.977  44.725  36.129  0.00  0.00    -0.582 OA
ATOM     37  O2S SGN d5702      61.222  44.411  38.300  0.00  0.00    -0.582 OA
ATOM     38  O3S SGN d5702      59.589  44.587  36.553  0.00  0.00    -0.582 OA
ENDBRANCH  33  35
ENDBRANCH   2  33
BRANCH   6  39
ATOM     39  O1  SGN d5702      61.230  39.835  37.708  0.00  0.00    -0.369 OA
ATOM     40  H   SGN d5702      60.720  40.027  36.905  0.00  0.00     0.212 HD
ENDBRANCH   6  39
TORSDOF 14
ENDMDL
MODEL 81
REMARK VINA RESULT:      -3.3      2.341      3.229
REMARK  14 active torsions:
REMARK  status: ('A' for Active; 'I' for Inactive)
REMARK    1  A    between atoms: C5_1  and  C6_23 
REMARK    2  A    between atoms: S2_5  and  O6_7 
REMARK    3  A    between atoms: O1_6  and  C1_35 
REMARK    4  A    between atoms: O6_7  and  C6_21 
REMARK    5  A    between atoms: O2_9  and  C2_28 
REMARK    6  A    between atoms: O2_9  and  S_13 
REMARK    7  A    between atoms: C3_10  and  O3_20 
REMARK    8  A    between atoms: C1_11  and  O4_12 
REMARK    9  A    between atoms: O4_12  and  C4_19 
REMARK   10  A    between atoms: C2_15  and  N_29 
REMARK   11  A    between atoms: C5_17  and  C6_21 
REMARK   12  A    between atoms: C6_23  and  O61_33 
REMARK   13  A    between atoms: O3_24  and  C3_26 
REMARK   14  A    between atoms: S1_27  and  N_29 
ROOT
ATOM      1  O5  SGN d5702      62.026  40.183  36.530  0.00  0.00    -0.350 OA
ATOM      2  C2  SGN d5702      62.979  38.603  38.065  0.00  0.00     0.160 C 
ATOM      3  C5  SGN d5702      63.284  40.687  36.149  0.00  0.00     0.181 C 
ATOM      4  C4  SGN d5702      64.342  39.579  36.315  0.00  0.00     0.186 C 
ATOM      5  C3  SGN d5702      64.354  39.160  37.809  0.00  0.00     0.173 C 
ATOM      6  C1  SGN d5702      61.927  39.678  37.865  0.00  0.00     0.278 C 
ENDROOT
BRANCH   4   7
ATOM      7  O4  SGN d5702      65.607  40.158  35.891  0.00  0.00    -0.348 OA
BRANCH   7   8
ATOM      8  C1  IDU d1623      66.538  39.577  35.001  0.00  0.00     0.294 C 
ATOM      9  O5  IDU d1623      66.019  39.406  33.643  0.00  0.00    -0.343 OA
ATOM     10  C5  IDU d1623      66.934  38.686  32.742  0.00  0.00     0.224 C 
ATOM     11  C4  IDU d1623      68.240  39.488  32.618  0.00  0.00     0.077 C 
ATOM     12  C3  IDU d1623      68.854  39.694  34.011  0.00  0.00     0.156 C 
ATOM     13  C2  IDU d1623      67.815  40.423  34.878  0.00  0.00     0.228 C 
BRANCH  10  14
ATOM     14  C6  IDU d1623      66.343  38.532  31.367  0.00  0.00     0.170 C 
ATOM     15  O62 IDU d1623      65.123  38.710  31.231  0.00  0.00    -0.648 OA
BRANCH  14  16
ATOM     16  O61 IDU d1623      67.115  38.231  30.434  0.00  0.00    -0.774 OA
ENDBRANCH  14  16
ENDBRANCH  10  14
BRANCH  12  18
ATOM     18  O3  IDU d1623      69.162  38.450  34.575  0.00  0.00    -0.393 OA
ATOM     19  H   IDU d1623      69.651  37.915  33.930  0.00  0.00     0.210 HD
ENDBRANCH  12  18
BRANCH  13  20
ATOM     20  O2  IDU d1623      67.461  41.643  34.272  0.00  0.00    -0.244 OA
BRANCH  20  21
ATOM     21  S   IDU d1623      67.767  43.109  35.143  0.00  0.00     0.252 S 
ATOM     22  O3S IDU d1623      66.801  43.297  36.160  0.00  0.00    -0.572 OA
ATOM     23  O1S IDU d1623      67.796  44.165  34.177  0.00  0.00    -0.572 OA
ATOM     24  O2S IDU d1623      69.054  43.049  35.819  0.00  0.00    -0.572 OA
ENDBRANCH  20  21
ENDBRANCH  13  20
ENDBRANCH   7   8
ENDBRANCH   4   7
BRANCH   3  25
ATOM     25  C6  SGN d5702      63.164  41.147  34.729  0.00  0.00     0.227 C 
BRANCH  25  26
ATOM     26  O6  SGN d5702      62.631  42.457  34.852  0.00  0.00    -0.254 OA
BRANCH  26  27
ATOM     27  S2  SGN d5702      63.497  43.774  34.136  0.00  0.00     0.251 S 
ATOM     28  O4S SGN d5702      62.669  44.513  33.238  0.00  0.00    -0.572 OA
ATOM     29  O5S SGN d5702      64.617  43.242  33.413  0.00  0.00    -0.572 OA
ATOM     30  O6S SGN d5702      63.879  44.615  35.232  0.00  0.00    -0.572 OA
ENDBRANCH  26  27
ENDBRANCH  25  26
ENDBRANCH   3  25
BRANCH   5  31
ATOM     31  O3  SGN d5702      65.298  38.137  38.012  0.00  0.00    -0.391 OA
ATOM     32  H   SGN d5702      66.193  38.495  37.897  0.00  0.00     0.210 HD
ENDBRANCH   5  31
BRANCH   2  33
ATOM     33  N   SGN d5702      62.873  38.146  39.412  0.00  0.00    -0.189 NA
ATOM     34  H   SGN d5702      62.070  38.598  39.851  0.00  0.00     0.143 HD
BRANCH  33  35
ATOM     35  S1  SGN d5702      62.661  36.394  39.501  0.00  0.00     0.183 S 
ATOM     36  O1S SGN d5702      61.760  35.987  38.441  0.00  0.00    -0.582 OA
ATOM     37  O2S SGN d5702      62.039  36.070  40.743  0.00  0.00    -0.582 OA
ATOM     38  O3S SGN d5702      63.997  35.843  39.377  0.00  0.00    -0.582 OA
ENDBRANCH  33  35
ENDBRANCH   2  33
BRANCH   6  39
ATOM     39  O1  SGN d5702      62.039  40.726  38.799  0.00  0.00    -0.369 OA
ATOM     40  H   SGN d5702      62.254  41.550  38.335  0.00  0.00     0.212 HD
ENDBRANCH   6  39
TORSDOF 14
ENDMDL
MODEL 82
REMARK VINA RESULT:      -3.3      3.653      6.357
REMARK  14 active torsions:
REMARK  status: ('A' for Active; 'I' for Inactive)
REMARK    1  A    between atoms: C5_1  and  C6_23 
REMARK    2  A    between atoms: S2_5  and  O6_7 
REMARK    3  A    between atoms: O1_6  and  C1_35 
REMARK    4  A    between atoms: O6_7  and  C6_21 
REMARK    5  A    between atoms: O2_9  and  C2_28 
REMARK    6  A    between atoms: O2_9  and  S_13 
REMARK    7  A    between atoms: C3_10  and  O3_20 
REMARK    8  A    between atoms: C1_11  and  O4_12 
REMARK    9  A    between atoms: O4_12  and  C4_19 
REMARK   10  A    between atoms: C2_15  and  N_29 
REMARK   11  A    between atoms: C5_17  and  C6_21 
REMARK   12  A    between atoms: C6_23  and  O61_33 
REMARK   13  A    between atoms: O3_24  and  C3_26 
REMARK   14  A    between atoms: S1_27  and  N_29 
ROOT
ATOM      1  O5  SGN d5702      65.059  35.639  37.842  0.00  0.00    -0.350 OA
ATOM      2  C2  SGN d5702      63.310  35.356  39.462  0.00  0.00     0.160 C 
ATOM      3  C5  SGN d5702      64.580  36.897  37.431  0.00  0.00     0.181 C 
ATOM      4  C4  SGN d5702      63.836  37.562  38.607  0.00  0.00     0.186 C 
ATOM      5  C3  SGN d5702      62.658  36.633  39.003  0.00  0.00     0.173 C 
ATOM      6  C1  SGN d5702      64.077  34.715  38.320  0.00  0.00     0.278 C 
ENDROOT
BRANCH   4   7
ATOM      7  O4  SGN d5702      63.384  38.856  38.121  0.00  0.00    -0.348 OA
BRANCH   7   8
ATOM      8  C1  IDU d1623      63.518  40.094  38.787  0.00  0.00     0.294 C 
ATOM      9  O5  IDU d1623      64.873  40.646  38.727  0.00  0.00    -0.343 OA
ATOM     10  C5  IDU d1623      65.054  41.869  39.525  0.00  0.00     0.224 C 
ATOM     11  C4  IDU d1623      64.110  42.957  38.986  0.00  0.00     0.077 C 
ATOM     12  C3  IDU d1623      62.660  42.452  39.035  0.00  0.00     0.156 C 
ATOM     13  C2  IDU d1623      62.584  41.164  38.200  0.00  0.00     0.228 C 
BRANCH  10  14
ATOM     14  C6  IDU d1623      66.465  42.382  39.433  0.00  0.00     0.170 C 
ATOM     15  O62 IDU d1623      66.812  43.286  40.209  0.00  0.00    -0.648 OA
BRANCH  14  16
ATOM     16  O61 IDU d1623      67.214  41.869  38.576  0.00  0.00    -0.774 OA
ENDBRANCH  14  16
ENDBRANCH  10  14
BRANCH  12  18
ATOM     18  O3  IDU d1623      62.301  42.187  40.362  0.00  0.00    -0.393 OA
ATOM     19  H   IDU d1623      62.090  41.245  40.458  0.00  0.00     0.210 HD
ENDBRANCH  12  18
BRANCH  13  20
ATOM     20  O2  IDU d1623      63.009  41.423  36.883  0.00  0.00    -0.244 OA
BRANCH  20  21
ATOM     21  S   IDU d1623      61.871  41.197  35.597  0.00  0.00     0.252 S 
ATOM     22  O3S IDU d1623      62.540  40.932  34.379  0.00  0.00    -0.572 OA
ATOM     23  O1S IDU d1623      61.052  42.371  35.559  0.00  0.00    -0.572 OA
ATOM     24  O2S IDU d1623      61.028  40.039  35.851  0.00  0.00    -0.572 OA
ENDBRANCH  20  21
ENDBRANCH  13  20
ENDBRANCH   7   8
ENDBRANCH   4   7
BRANCH   3  25
ATOM     25  C6  SGN d5702      65.763  37.697  36.985  0.00  0.00     0.227 C 
BRANCH  25  26
ATOM     26  O6  SGN d5702      65.532  37.880  35.596  0.00  0.00    -0.254 OA
BRANCH  26  27
ATOM     27  S2  SGN d5702      66.152  39.305  34.833  0.00  0.00     0.251 S 
ATOM     28  O4S SGN d5702      65.833  40.477  35.583  0.00  0.00    -0.572 OA
ATOM     29  O5S SGN d5702      65.571  39.409  33.525  0.00  0.00    -0.572 OA
ATOM     30  O6S SGN d5702      67.575  39.130  34.808  0.00  0.00    -0.572 OA
ENDBRANCH  26  27
ENDBRANCH  25  26
ENDBRANCH   3  25
BRANCH   5  31
ATOM     31  O3  SGN d5702      61.953  37.191  40.085  0.00  0.00    -0.391 OA
ATOM     32  H   SGN d5702      62.569  37.673  40.659  0.00  0.00     0.210 HD
ENDBRANCH   5  31
BRANCH   2  33
ATOM     33  N   SGN d5702      62.321  34.422  39.890  0.00  0.00    -0.189 NA
ATOM     34  H   SGN d5702      62.436  33.555  39.364  0.00  0.00     0.143 HD
BRANCH  33  35
ATOM     35  S1  SGN d5702      62.455  34.063  41.615  0.00  0.00     0.183 S 
ATOM     36  O1S SGN d5702      61.674  32.876  41.898  0.00  0.00    -0.582 OA
ATOM     37  O2S SGN d5702      61.883  35.140  42.354  0.00  0.00    -0.582 OA
ATOM     38  O3S SGN d5702      63.875  33.901  41.860  0.00  0.00    -0.582 OA
ENDBRANCH  33  35
ENDBRANCH   2  33
BRANCH   6  39
ATOM     39  O1  SGN d5702      63.238  34.299  37.269  0.00  0.00    -0.369 OA
ATOM     40  H   SGN d5702      63.332  34.909  36.520  0.00  0.00     0.212 HD
ENDBRANCH   6  39
TORSDOF 14
ENDMDL
MODEL 83
REMARK VINA RESULT:      -3.3      4.347      8.350
REMARK  14 active torsions:
REMARK  status: ('A' for Active; 'I' for Inactive)
REMARK    1  A    between atoms: C5_1  and  C6_23 
REMARK    2  A    between atoms: S2_5  and  O6_7 
REMARK    3  A    between atoms: O1_6  and  C1_35 
REMARK    4  A    between atoms: O6_7  and  C6_21 
REMARK    5  A    between atoms: O2_9  and  C2_28 
REMARK    6  A    between atoms: O2_9  and  S_13 
REMARK    7  A    between atoms: C3_10  and  O3_20 
REMARK    8  A    between atoms: C1_11  and  O4_12 
REMARK    9  A    between atoms: O4_12  and  C4_19 
REMARK   10  A    between atoms: C2_15  and  N_29 
REMARK   11  A    between atoms: C5_17  and  C6_21 
REMARK   12  A    between atoms: C6_23  and  O61_33 
REMARK   13  A    between atoms: O3_24  and  C3_26 
REMARK   14  A    between atoms: S1_27  and  N_29 
ROOT
ATOM      1  O5  SGN d5702      64.112  44.722  37.342  0.00  0.00    -0.350 OA
ATOM      2  C2  SGN d5702      66.288  44.475  38.327  0.00  0.00     0.160 C 
ATOM      3  C5  SGN d5702      63.723  43.414  37.688  0.00  0.00     0.181 C 
ATOM      4  C4  SGN d5702      64.486  42.979  38.955  0.00  0.00     0.186 C 
ATOM      5  C3  SGN d5702      66.003  43.027  38.629  0.00  0.00     0.173 C 
ATOM      6  C1  SGN d5702      65.509  44.922  37.104  0.00  0.00     0.278 C 
ENDROOT
BRANCH   4   7
ATOM      7  O4  SGN d5702      64.028  41.634  39.263  0.00  0.00    -0.348 OA
BRANCH   7   8
ATOM      8  C1  IDU d1623      63.631  41.155  40.531  0.00  0.00     0.294 C 
ATOM      9  O5  IDU d1623      62.475  41.860  41.087  0.00  0.00    -0.343 OA
ATOM     10  C5  IDU d1623      62.134  41.456  42.460  0.00  0.00     0.224 C 
ATOM     11  C4  IDU d1623      61.780  39.959  42.463  0.00  0.00     0.077 C 
ATOM     12  C3  IDU d1623      62.961  39.149  41.905  0.00  0.00     0.156 C 
ATOM     13  C2  IDU d1623      63.255  39.665  40.487  0.00  0.00     0.228 C 
BRANCH  10  14
ATOM     14  C6  IDU d1623      60.947  42.220  42.980  0.00  0.00     0.170 C 
ATOM     15  O62 IDU d1623      60.195  41.656  43.790  0.00  0.00    -0.648 OA
BRANCH  14  16
ATOM     16  O61 IDU d1623      60.781  43.386  42.565  0.00  0.00    -0.774 OA
ENDBRANCH  14  16
ENDBRANCH  10  14
BRANCH  12  18
ATOM     18  O3  IDU d1623      64.082  39.331  42.725  0.00  0.00    -0.393 OA
ATOM     19  H   IDU d1623      64.492  38.471  42.905  0.00  0.00     0.210 HD
ENDBRANCH  12  18
BRANCH  13  20
ATOM     20  O2  IDU d1623      62.104  39.540  39.687  0.00  0.00    -0.244 OA
BRANCH  20  21
ATOM     21  S   IDU d1623      62.229  38.648  38.207  0.00  0.00     0.252 S 
ATOM     22  O3S IDU d1623      63.469  38.903  37.574  0.00  0.00    -0.572 OA
ATOM     23  O1S IDU d1623      61.094  39.007  37.411  0.00  0.00    -0.572 OA
ATOM     24  O2S IDU d1623      62.196  37.216  38.462  0.00  0.00    -0.572 OA
ENDBRANCH  20  21
ENDBRANCH  13  20
ENDBRANCH   7   8
ENDBRANCH   4   7
BRANCH   3  25
ATOM     25  C6  SGN d5702      62.241  43.436  37.900  0.00  0.00     0.227 C 
BRANCH  25  26
ATOM     26  O6  SGN d5702      61.801  42.244  37.265  0.00  0.00    -0.254 OA
BRANCH  26  27
ATOM     27  S2  SGN d5702      61.378  42.306  35.588  0.00  0.00     0.251 S 
ATOM     28  O4S SGN d5702      62.196  41.429  34.814  0.00  0.00    -0.572 OA
ATOM     29  O5S SGN d5702      61.558  43.651  35.123  0.00  0.00    -0.572 OA
ATOM     30  O6S SGN d5702      60.016  41.863  35.527  0.00  0.00    -0.572 OA
ENDBRANCH  26  27
ENDBRANCH  25  26
ENDBRANCH   3  25
BRANCH   5  31
ATOM     31  O3  SGN d5702      66.748  42.650  39.762  0.00  0.00    -0.391 OA
ATOM     32  H   SGN d5702      67.667  42.939  39.656  0.00  0.00     0.210 HD
ENDBRANCH   5  31
BRANCH   2  33
ATOM     33  N   SGN d5702      67.673  44.658  38.043  0.00  0.00    -0.189 NA
ATOM     34  H   SGN d5702      67.765  45.142  37.149  0.00  0.00     0.143 HD
BRANCH  33  35
ATOM     35  S1  SGN d5702      68.484  45.607  39.292  0.00  0.00     0.183 S 
ATOM     36  O1S SGN d5702      68.941  44.705  40.330  0.00  0.00    -0.582 OA
ATOM     37  O2S SGN d5702      67.537  46.495  39.882  0.00  0.00    -0.582 OA
ATOM     38  O3S SGN d5702      69.557  46.300  38.606  0.00  0.00    -0.582 OA
ENDBRANCH  33  35
ENDBRANCH   2  33
BRANCH   6  39
ATOM     39  O1  SGN d5702      65.910  44.255  35.931  0.00  0.00    -0.369 OA
ATOM     40  H   SGN d5702      66.646  44.735  35.522  0.00  0.00     0.212 HD
ENDBRANCH   6  39
TORSDOF 14
ENDMDL
MODEL 84
REMARK VINA RESULT:      -3.3      3.150      6.087
REMARK  14 active torsions:
REMARK  status: ('A' for Active; 'I' for Inactive)
REMARK    1  A    between atoms: C5_1  and  C6_23 
REMARK    2  A    between atoms: S2_5  and  O6_7 
REMARK    3  A    between atoms: O1_6  and  C1_35 
REMARK    4  A    between atoms: O6_7  and  C6_21 
REMARK    5  A    between atoms: O2_9  and  C2_28 
REMARK    6  A    between atoms: O2_9  and  S_13 
REMARK    7  A    between atoms: C3_10  and  O3_20 
REMARK    8  A    between atoms: C1_11  and  O4_12 
REMARK    9  A    between atoms: O4_12  and  C4_19 
REMARK   10  A    between atoms: C2_15  and  N_29 
REMARK   11  A    between atoms: C5_17  and  C6_21 
REMARK   12  A    between atoms: C6_23  and  O61_33 
REMARK   13  A    between atoms: O3_24  and  C3_26 
REMARK   14  A    between atoms: S1_27  and  N_29 
ROOT
ATOM      1  O5  SGN d5702      65.272  38.899  38.919  0.00  0.00    -0.350 OA
ATOM      2  C2  SGN d5702      63.139  37.808  38.769  0.00  0.00     0.160 C 
ATOM      3  C5  SGN d5702      64.892  39.931  38.041  0.00  0.00     0.181 C 
ATOM      4  C4  SGN d5702      63.367  40.136  38.134  0.00  0.00     0.186 C 
ATOM      5  C3  SGN d5702      62.688  38.800  37.731  0.00  0.00     0.173 C 
ATOM      6  C1  SGN d5702      64.645  37.630  38.710  0.00  0.00     0.278 C 
ENDROOT
BRANCH   4   7
ATOM      7  O4  SGN d5702      63.046  41.220  37.220  0.00  0.00    -0.348 OA
BRANCH   7   8
ATOM      8  C1  IDU d1623      62.149  42.283  37.463  0.00  0.00     0.294 C 
ATOM      9  O5  IDU d1623      62.639  43.246  38.452  0.00  0.00    -0.343 OA
ATOM     10  C5  IDU d1623      61.660  44.286  38.807  0.00  0.00     0.224 C 
ATOM     11  C4  IDU d1623      61.311  45.090  37.544  0.00  0.00     0.077 C 
ATOM     12  C3  IDU d1623      60.771  44.142  36.461  0.00  0.00     0.156 C 
ATOM     13  C2  IDU d1623      61.850  43.083  36.185  0.00  0.00     0.228 C 
BRANCH  10  14
ATOM     14  C6  IDU d1623      62.215  45.236  39.832  0.00  0.00     0.170 C 
ATOM     15  O62 IDU d1623      61.421  45.962  40.450  0.00  0.00    -0.648 OA
BRANCH  14  16
ATOM     16  O61 IDU d1623      63.451  45.245  40.006  0.00  0.00    -0.774 OA
ENDBRANCH  14  16
ENDBRANCH  10  14
BRANCH  12  18
ATOM     18  O3  IDU d1623      59.599  43.527  36.920  0.00  0.00    -0.393 OA
ATOM     19  H   IDU d1623      58.834  44.078  36.691  0.00  0.00     0.210 HD
ENDBRANCH  12  18
BRANCH  13  20
ATOM     20  O2  IDU d1623      63.045  43.713  35.788  0.00  0.00    -0.244 OA
BRANCH  20  21
ATOM     21  S   IDU d1623      63.540  43.558  34.135  0.00  0.00     0.252 S 
ATOM     22  O3S IDU d1623      63.230  42.270  33.639  0.00  0.00    -0.572 OA
ATOM     23  O1S IDU d1623      64.937  43.870  34.092  0.00  0.00    -0.572 OA
ATOM     24  O2S IDU d1623      62.818  44.497  33.289  0.00  0.00    -0.572 OA
ENDBRANCH  20  21
ENDBRANCH  13  20
ENDBRANCH   7   8
ENDBRANCH   4   7
BRANCH   3  25
ATOM     25  C6  SGN d5702      65.653  41.156  38.443  0.00  0.00     0.227 C 
BRANCH  25  26
ATOM     26  O6  SGN d5702      66.356  41.508  37.260  0.00  0.00    -0.254 OA
BRANCH  26  27
ATOM     27  S2  SGN d5702      67.929  40.836  36.999  0.00  0.00     0.251 S 
ATOM     28  O4S SGN d5702      68.524  40.414  38.226  0.00  0.00    -0.572 OA
ATOM     29  O5S SGN d5702      68.757  41.840  36.394  0.00  0.00    -0.572 OA
ATOM     30  O6S SGN d5702      67.717  39.696  36.157  0.00  0.00    -0.572 OA
ENDBRANCH  26  27
ENDBRANCH  25  26
ENDBRANCH   3  25
BRANCH   5  31
ATOM     31  O3  SGN d5702      61.289  38.931  37.813  0.00  0.00    -0.391 OA
ATOM     32  H   SGN d5702      61.061  39.853  38.008  0.00  0.00     0.210 HD
ENDBRANCH   5  31
BRANCH   2  33
ATOM     33  N   SGN d5702      62.548  36.533  38.526  0.00  0.00    -0.189 NA
ATOM     34  H   SGN d5702      62.944  36.144  37.670  0.00  0.00     0.143 HD
BRANCH  33  35
ATOM     35  S1  SGN d5702      62.841  35.405  39.853  0.00  0.00     0.183 S 
ATOM     36  O1S SGN d5702      62.786  36.140  41.101  0.00  0.00    -0.582 OA
ATOM     37  O2S SGN d5702      64.159  34.875  39.724  0.00  0.00    -0.582 OA
ATOM     38  O3S SGN d5702      61.810  34.392  39.725  0.00  0.00    -0.582 OA
ENDBRANCH  33  35
ENDBRANCH   2  33
BRANCH   6  39
ATOM     39  O1  SGN d5702      65.077  37.060  37.498  0.00  0.00    -0.369 OA
ATOM     40  H   SGN d5702      64.555  36.263  37.312  0.00  0.00     0.212 HD
ENDBRANCH   6  39
TORSDOF 14
ENDMDL
MODEL 85
REMARK VINA RESULT:      -3.3      3.874      6.472
REMARK  14 active torsions:
REMARK  status: ('A' for Active; 'I' for Inactive)
REMARK    1  A    between atoms: C5_1  and  C6_23 
REMARK    2  A    between atoms: S2_5  and  O6_7 
REMARK    3  A    between atoms: O1_6  and  C1_35 
REMARK    4  A    between atoms: O6_7  and  C6_21 
REMARK    5  A    between atoms: O2_9  and  C2_28 
REMARK    6  A    between atoms: O2_9  and  S_13 
REMARK    7  A    between atoms: C3_10  and  O3_20 
REMARK    8  A    between atoms: C1_11  and  O4_12 
REMARK    9  A    between atoms: O4_12  and  C4_19 
REMARK   10  A    between atoms: C2_15  and  N_29 
REMARK   11  A    between atoms: C5_17  and  C6_21 
REMARK   12  A    between atoms: C6_23  and  O61_33 
REMARK   13  A    between atoms: O3_24  and  C3_26 
REMARK   14  A    between atoms: S1_27  and  N_29 
ROOT
ATOM      1  O5  SGN d5702      62.624  38.182  38.066  0.00  0.00    -0.350 OA
ATOM      2  C2  SGN d5702      64.074  37.297  39.762  0.00  0.00     0.160 C 
ATOM      3  C5  SGN d5702      62.469  39.412  38.732  0.00  0.00     0.181 C 
ATOM      4  C4  SGN d5702      63.728  39.689  39.578  0.00  0.00     0.186 C 
ATOM      5  C3  SGN d5702      63.870  38.531  40.601  0.00  0.00     0.173 C 
ATOM      6  C1  SGN d5702      62.855  37.040  38.896  0.00  0.00     0.278 C 
ENDROOT
BRANCH   4   7
ATOM      7  O4  SGN d5702      63.509  40.974  40.223  0.00  0.00    -0.348 OA
BRANCH   7   8
ATOM      8  C1  IDU d1623      64.415  42.057  40.261  0.00  0.00     0.294 C 
ATOM      9  O5  IDU d1623      64.537  42.762  38.983  0.00  0.00    -0.343 OA
ATOM     10  C5  IDU d1623      65.571  43.809  38.977  0.00  0.00     0.224 C 
ATOM     11  C4  IDU d1623      65.212  44.868  40.033  0.00  0.00     0.077 C 
ATOM     12  C3  IDU d1623      65.083  44.199  41.411  0.00  0.00     0.156 C 
ATOM     13  C2  IDU d1623      64.006  43.109  41.304  0.00  0.00     0.228 C 
BRANCH  10  14
ATOM     14  C6  IDU d1623      65.656  44.490  37.638  0.00  0.00     0.170 C 
ATOM     15  O62 IDU d1623      66.781  44.713  37.165  0.00  0.00    -0.648 OA
BRANCH  14  16
ATOM     16  O61 IDU d1623      64.586  44.795  37.073  0.00  0.00    -0.774 OA
ENDBRANCH  14  16
ENDBRANCH  10  14
BRANCH  12  18
ATOM     18  O3  IDU d1623      66.311  43.629  41.770  0.00  0.00    -0.393 OA
ATOM     19  H   IDU d1623      67.017  44.016  41.231  0.00  0.00     0.210 HD
ENDBRANCH  12  18
BRANCH  13  20
ATOM     20  O2  IDU d1623      62.791  43.680  40.878  0.00  0.00    -0.244 OA
BRANCH  20  21
ATOM     21  S   IDU d1623      61.588  44.030  42.075  0.00  0.00     0.252 S 
ATOM     22  O3S IDU d1623      60.574  44.856  41.537  0.00  0.00    -0.572 OA
ATOM     23  O1S IDU d1623      62.273  44.612  43.190  0.00  0.00    -0.572 OA
ATOM     24  O2S IDU d1623      60.923  42.811  42.510  0.00  0.00    -0.572 OA
ENDBRANCH  20  21
ENDBRANCH  13  20
ENDBRANCH   7   8
ENDBRANCH   4   7
BRANCH   3  25
ATOM     25  C6  SGN d5702      62.252  40.458  37.683  0.00  0.00     0.227 C 
BRANCH  25  26
ATOM     26  O6  SGN d5702      61.114  39.985  36.978  0.00  0.00    -0.254 OA
BRANCH  26  27
ATOM     27  S2  SGN d5702      60.770  40.649  35.417  0.00  0.00     0.251 S 
ATOM     28  O4S SGN d5702      60.053  41.878  35.521  0.00  0.00    -0.572 OA
ATOM     29  O5S SGN d5702      59.978  39.702  34.685  0.00  0.00    -0.572 OA
ATOM     30  O6S SGN d5702      62.051  40.894  34.822  0.00  0.00    -0.572 OA
ENDBRANCH  26  27
ENDBRANCH  25  26
ENDBRANCH   3  25
BRANCH   5  31
ATOM     31  O3  SGN d5702      65.016  38.730  41.393  0.00  0.00    -0.391 OA
ATOM     32  H   SGN d5702      65.575  39.411  40.987  0.00  0.00     0.210 HD
ENDBRANCH   5  31
BRANCH   2  33
ATOM     33  N   SGN d5702      64.255  36.155  40.597  0.00  0.00    -0.189 NA
ATOM     34  H   SGN d5702      63.515  35.481  40.397  0.00  0.00     0.143 HD
BRANCH  33  35
ATOM     35  S1  SGN d5702      65.820  35.381  40.328  0.00  0.00     0.183 S 
ATOM     36  O1S SGN d5702      65.900  34.980  38.937  0.00  0.00    -0.582 OA
ATOM     37  O2S SGN d5702      65.890  34.198  41.121  0.00  0.00    -0.582 OA
ATOM     38  O3S SGN d5702      66.806  36.375  40.707  0.00  0.00    -0.582 OA
ENDBRANCH  33  35
ENDBRANCH   2  33
BRANCH   6  39
ATOM     39  O1  SGN d5702      61.706  36.739  39.652  0.00  0.00    -0.369 OA
ATOM     40  H   SGN d5702      61.293  35.934  39.304  0.00  0.00     0.212 HD
ENDBRANCH   6  39
TORSDOF 14
ENDMDL
MODEL 86
REMARK VINA RESULT:      -3.3      3.806      4.951
REMARK  14 active torsions:
REMARK  status: ('A' for Active; 'I' for Inactive)
REMARK    1  A    between atoms: C5_1  and  C6_23 
REMARK    2  A    between atoms: S2_5  and  O6_7 
REMARK    3  A    between atoms: O1_6  and  C1_35 
REMARK    4  A    between atoms: O6_7  and  C6_21 
REMARK    5  A    between atoms: O2_9  and  C2_28 
REMARK    6  A    between atoms: O2_9  and  S_13 
REMARK    7  A    between atoms: C3_10  and  O3_20 
REMARK    8  A    between atoms: C1_11  and  O4_12 
REMARK    9  A    between atoms: O4_12  and  C4_19 
REMARK   10  A    between atoms: C2_15  and  N_29 
REMARK   11  A    between atoms: C5_17  and  C6_21 
REMARK   12  A    between atoms: C6_23  and  O61_33 
REMARK   13  A    between atoms: O3_24  and  C3_26 
REMARK   14  A    between atoms: S1_27  and  N_29 
ROOT
ATOM      1  O5  SGN d5702      64.611  43.029  37.954  0.00  0.00    -0.350 OA
ATOM      2  C2  SGN d5702      66.736  44.144  38.034  0.00  0.00     0.160 C 
ATOM      3  C5  SGN d5702      64.498  43.181  36.560  0.00  0.00     0.181 C 
ATOM      4  C4  SGN d5702      65.909  43.239  35.943  0.00  0.00     0.186 C 
ATOM      5  C3  SGN d5702      66.644  44.457  36.564  0.00  0.00     0.173 C 
ATOM      6  C1  SGN d5702      65.349  44.045  38.641  0.00  0.00     0.278 C 
ENDROOT
BRANCH   4   7
ATOM      7  O4  SGN d5702      65.720  43.379  34.508  0.00  0.00    -0.348 OA
BRANCH   7   8
ATOM      8  C1  IDU d1623      66.393  42.656  33.499  0.00  0.00     0.294 C 
ATOM      9  O5  IDU d1623      66.071  41.227  33.491  0.00  0.00    -0.343 OA
ATOM     10  C5  IDU d1623      66.863  40.444  32.529  0.00  0.00     0.224 C 
ATOM     11  C4  IDU d1623      66.582  40.969  31.111  0.00  0.00     0.077 C 
ATOM     12  C3  IDU d1623      66.916  42.467  31.040  0.00  0.00     0.156 C 
ATOM     13  C2  IDU d1623      66.063  43.188  32.095  0.00  0.00     0.228 C 
BRANCH  10  14
ATOM     14  C6  IDU d1623      66.495  38.986  32.573  0.00  0.00     0.170 C 
ATOM     15  O62 IDU d1623      65.401  38.643  32.098  0.00  0.00    -0.648 OA
BRANCH  14  16
ATOM     16  O61 IDU d1623      67.312  38.196  33.088  0.00  0.00    -0.774 OA
ENDBRANCH  14  16
ENDBRANCH  10  14
BRANCH  12  18
ATOM     18  O3  IDU d1623      68.277  42.656  31.310  0.00  0.00    -0.393 OA
ATOM     19  H   IDU d1623      68.679  43.173  30.594  0.00  0.00     0.210 HD
ENDBRANCH  12  18
BRANCH  13  20
ATOM     20  O2  IDU d1623      64.698  42.938  31.857  0.00  0.00    -0.244 OA
BRANCH  20  21
ATOM     21  S   IDU d1623      63.643  44.297  31.650  0.00  0.00     0.252 S 
ATOM     22  O3S IDU d1623      62.688  44.038  30.638  0.00  0.00    -0.572 OA
ATOM     23  O1S IDU d1623      64.477  45.429  31.377  0.00  0.00    -0.572 OA
ATOM     24  O2S IDU d1623      62.882  44.550  32.864  0.00  0.00    -0.572 OA
ENDBRANCH  20  21
ENDBRANCH  13  20
ENDBRANCH   7   8
ENDBRANCH   4   7
BRANCH   3  25
ATOM     25  C6  SGN d5702      63.706  42.016  36.052  0.00  0.00     0.227 C 
BRANCH  25  26
ATOM     26  O6  SGN d5702      62.406  42.251  36.571  0.00  0.00    -0.254 OA
BRANCH  26  27
ATOM     27  S2  SGN d5702      61.085  41.321  35.950  0.00  0.00     0.251 S 
ATOM     28  O4S SGN d5702      61.449  40.638  34.751  0.00  0.00    -0.572 OA
ATOM     29  O5S SGN d5702      59.993  42.210  35.673  0.00  0.00    -0.572 OA
ATOM     30  O6S SGN d5702      60.786  40.361  36.972  0.00  0.00    -0.572 OA
ENDBRANCH  26  27
ENDBRANCH  25  26
ENDBRANCH   3  25
BRANCH   5  31
ATOM     31  O3  SGN d5702      67.947  44.548  36.041  0.00  0.00    -0.391 OA
ATOM     32  H   SGN d5702      68.258  43.663  35.795  0.00  0.00     0.210 HD
ENDBRANCH   5  31
BRANCH   2  33
ATOM     33  N   SGN d5702      67.430  45.184  38.719  0.00  0.00    -0.189 NA
ATOM     34  H   SGN d5702      66.768  45.689  39.310  0.00  0.00     0.143 HD
BRANCH  33  35
ATOM     35  S1  SGN d5702      68.733  44.554  39.732  0.00  0.00     0.183 S 
ATOM     36  O1S SGN d5702      68.681  43.106  39.698  0.00  0.00    -0.582 OA
ATOM     37  O2S SGN d5702      68.504  44.960  41.080  0.00  0.00    -0.582 OA
ATOM     38  O3S SGN d5702      69.951  45.109  39.174  0.00  0.00    -0.582 OA
ENDBRANCH  33  35
ENDBRANCH   2  33
BRANCH   6  39
ATOM     39  O1  SGN d5702      64.653  45.268  38.607  0.00  0.00    -0.369 OA
ATOM     40  H   SGN d5702      65.136  45.928  39.130  0.00  0.00     0.212 HD
ENDBRANCH   6  39
TORSDOF 14
ENDMDL
MODEL 87
REMARK VINA RESULT:      -3.3      3.145      6.556
REMARK  14 active torsions:
REMARK  status: ('A' for Active; 'I' for Inactive)
REMARK    1  A    between atoms: C5_1  and  C6_23 
REMARK    2  A    between atoms: S2_5  and  O6_7 
REMARK    3  A    between atoms: O1_6  and  C1_35 
REMARK    4  A    between atoms: O6_7  and  C6_21 
REMARK    5  A    between atoms: O2_9  and  C2_28 
REMARK    6  A    between atoms: O2_9  and  S_13 
REMARK    7  A    between atoms: C3_10  and  O3_20 
REMARK    8  A    between atoms: C1_11  and  O4_12 
REMARK    9  A    between atoms: O4_12  and  C4_19 
REMARK   10  A    between atoms: C2_15  and  N_29 
REMARK   11  A    between atoms: C5_17  and  C6_21 
REMARK   12  A    between atoms: C6_23  and  O61_33 
REMARK   13  A    between atoms: O3_24  and  C3_26 
REMARK   14  A    between atoms: S1_27  and  N_29 
ROOT
ATOM      1  O5  SGN d5702      65.578  38.547  35.809  0.00  0.00    -0.350 OA
ATOM      2  C2  SGN d5702      65.654  39.630  33.668  0.00  0.00     0.160 C 
ATOM      3  C5  SGN d5702      65.543  39.767  36.511  0.00  0.00     0.181 C 
ATOM      4  C4  SGN d5702      64.884  40.841  35.622  0.00  0.00     0.186 C 
ATOM      5  C3  SGN d5702      65.742  40.977  34.336  0.00  0.00     0.173 C 
ATOM      6  C1  SGN d5702      66.265  38.561  34.555  0.00  0.00     0.278 C 
ENDROOT
BRANCH   4   7
ATOM      7  O4  SGN d5702      64.866  42.063  36.409  0.00  0.00    -0.348 OA
BRANCH   7   8
ATOM      8  C1  IDU d1623      63.938  43.122  36.291  0.00  0.00     0.294 C 
ATOM      9  O5  IDU d1623      62.542  42.686  36.371  0.00  0.00    -0.343 OA
ATOM     10  C5  IDU d1623      61.568  43.761  36.121  0.00  0.00     0.224 C 
ATOM     11  C4  IDU d1623      61.751  44.854  37.186  0.00  0.00     0.077 C 
ATOM     12  C3  IDU d1623      63.197  45.373  37.150  0.00  0.00     0.156 C 
ATOM     13  C2  IDU d1623      64.131  44.177  37.391  0.00  0.00     0.228 C 
BRANCH  10  14
ATOM     14  C6  IDU d1623      60.154  43.251  36.206  0.00  0.00     0.170 C 
ATOM     15  O62 IDU d1623      59.322  43.936  36.821  0.00  0.00    -0.648 OA
BRANCH  14  16
ATOM     16  O61 IDU d1623      59.895  42.163  35.653  0.00  0.00    -0.774 OA
ENDBRANCH  14  16
ENDBRANCH  10  14
BRANCH  12  18
ATOM     18  O3  IDU d1623      63.457  45.942  35.897  0.00  0.00    -0.393 OA
ATOM     19  H   IDU d1623      62.768  45.673  35.270  0.00  0.00     0.210 HD
ENDBRANCH  12  18
BRANCH  13  20
ATOM     20  O2  IDU d1623      63.819  43.570  38.622  0.00  0.00    -0.244 OA
BRANCH  20  21
ATOM     21  S   IDU d1623      64.724  44.045  40.021  0.00  0.00     0.252 S 
ATOM     22  O3S IDU d1623      64.838  42.967  40.931  0.00  0.00    -0.572 OA
ATOM     23  O1S IDU d1623      64.065  45.192  40.569  0.00  0.00    -0.572 OA
ATOM     24  O2S IDU d1623      66.085  44.408  39.657  0.00  0.00    -0.572 OA
ENDBRANCH  20  21
ENDBRANCH  13  20
ENDBRANCH   7   8
ENDBRANCH   4   7
BRANCH   3  25
ATOM     25  C6  SGN d5702      64.775  39.528  37.773  0.00  0.00     0.227 C 
BRANCH  25  26
ATOM     26  O6  SGN d5702      63.758  38.623  37.373  0.00  0.00    -0.254 OA
BRANCH  26  27
ATOM     27  S2  SGN d5702      62.253  38.636  38.227  0.00  0.00     0.251 S 
ATOM     28  O4S SGN d5702      61.191  39.115  37.402  0.00  0.00    -0.572 OA
ATOM     29  O5S SGN d5702      62.386  39.496  39.369  0.00  0.00    -0.572 OA
ATOM     30  O6S SGN d5702      62.004  37.268  38.576  0.00  0.00    -0.572 OA
ENDBRANCH  26  27
ENDBRANCH  25  26
ENDBRANCH   3  25
BRANCH   5  31
ATOM     31  O3  SGN d5702      65.173  41.940  33.482  0.00  0.00    -0.391 OA
ATOM     32  H   SGN d5702      64.382  41.570  33.059  0.00  0.00     0.210 HD
ENDBRANCH   5  31
BRANCH   2  33
ATOM     33  N   SGN d5702      66.382  39.638  32.442  0.00  0.00    -0.189 NA
ATOM     34  H   SGN d5702      67.135  38.951  32.502  0.00  0.00     0.143 HD
BRANCH  33  35
ATOM     35  S1  SGN d5702      65.355  39.239  31.061  0.00  0.00     0.183 S 
ATOM     36  O1S SGN d5702      64.865  37.885  31.229  0.00  0.00    -0.582 OA
ATOM     37  O2S SGN d5702      66.148  39.265  29.876  0.00  0.00    -0.582 OA
ATOM     38  O3S SGN d5702      64.308  40.243  31.064  0.00  0.00    -0.582 OA
ENDBRANCH  33  35
ENDBRANCH   2  33
BRANCH   6  39
ATOM     39  O1  SGN d5702      67.647  38.743  34.750  0.00  0.00    -0.369 OA
ATOM     40  H   SGN d5702      68.109  38.640  33.904  0.00  0.00     0.212 HD
ENDBRANCH   6  39
TORSDOF 14
ENDMDL
MODEL 88
REMARK VINA RESULT:      -3.2      3.373      6.040
REMARK  14 active torsions:
REMARK  status: ('A' for Active; 'I' for Inactive)
REMARK    1  A    between atoms: C5_1  and  C6_23 
REMARK    2  A    between atoms: S2_5  and  O6_7 
REMARK    3  A    between atoms: O1_6  and  C1_35 
REMARK    4  A    between atoms: O6_7  and  C6_21 
REMARK    5  A    between atoms: O2_9  and  C2_28 
REMARK    6  A    between atoms: O2_9  and  S_13 
REMARK    7  A    between atoms: C3_10  and  O3_20 
REMARK    8  A    between atoms: C1_11  and  O4_12 
REMARK    9  A    between atoms: O4_12  and  C4_19 
REMARK   10  A    between atoms: C2_15  and  N_29 
REMARK   11  A    between atoms: C5_17  and  C6_21 
REMARK   12  A    between atoms: C6_23  and  O61_33 
REMARK   13  A    between atoms: O3_24  and  C3_26 
REMARK   14  A    between atoms: S1_27  and  N_29 
ROOT
ATOM      1  O5  SGN d5702      63.465  40.405  40.901  0.00  0.00    -0.350 OA
ATOM      2  C2  SGN d5702      63.624  42.800  40.862  0.00  0.00     0.160 C 
ATOM      3  C5  SGN d5702      63.040  40.334  39.562  0.00  0.00     0.181 C 
ATOM      4  C4  SGN d5702      63.606  41.543  38.789  0.00  0.00     0.186 C 
ATOM      5  C3  SGN d5702      63.060  42.829  39.466  0.00  0.00     0.173 C 
ATOM      6  C1  SGN d5702      63.103  41.590  41.616  0.00  0.00     0.278 C 
ENDROOT
BRANCH   4   7
ATOM      7  O4  SGN d5702      63.145  41.400  37.417  0.00  0.00    -0.348 OA
BRANCH   7   8
ATOM      8  C1  IDU d1623      63.903  41.641  36.250  0.00  0.00     0.294 C 
ATOM      9  O5  IDU d1623      64.796  40.537  35.895  0.00  0.00    -0.343 OA
ATOM     10  C5  IDU d1623      65.682  40.830  34.756  0.00  0.00     0.224 C 
ATOM     11  C4  IDU d1623      64.817  41.114  33.517  0.00  0.00     0.077 C 
ATOM     12  C3  IDU d1623      63.860  42.280  33.811  0.00  0.00     0.156 C 
ATOM     13  C2  IDU d1623      63.005  41.889  35.027  0.00  0.00     0.228 C 
BRANCH  10  14
ATOM     14  C6  IDU d1623      66.581  39.665  34.446  0.00  0.00     0.170 C 
ATOM     15  O62 IDU d1623      66.177  38.811  33.643  0.00  0.00    -0.648 OA
BRANCH  14  16
ATOM     16  O61 IDU d1623      67.690  39.620  35.017  0.00  0.00    -0.774 OA
ENDBRANCH  14  16
ENDBRANCH  10  14
BRANCH  12  18
ATOM     18  O3  IDU d1623      64.601  43.433  34.096  0.00  0.00    -0.393 OA
ATOM     19  H   IDU d1623      65.542  43.262  33.931  0.00  0.00     0.210 HD
ENDBRANCH  12  18
BRANCH  13  20
ATOM     20  O2  IDU d1623      62.314  40.692  34.758  0.00  0.00    -0.244 OA
BRANCH  20  21
ATOM     21  S   IDU d1623      60.721  40.503  35.413  0.00  0.00     0.252 S 
ATOM     22  O3S IDU d1623      59.924  39.698  34.566  0.00  0.00    -0.572 OA
ATOM     23  O1S IDU d1623      60.198  41.821  35.612  0.00  0.00    -0.572 OA
ATOM     24  O2S IDU d1623      60.768  39.814  36.694  0.00  0.00    -0.572 OA
ENDBRANCH  20  21
ENDBRANCH  13  20
ENDBRANCH   7   8
ENDBRANCH   4   7
BRANCH   3  25
ATOM     25  C6  SGN d5702      63.531  39.032  39.011  0.00  0.00     0.227 C 
BRANCH  25  26
ATOM     26  O6  SGN d5702      62.412  38.170  39.158  0.00  0.00    -0.254 OA
BRANCH  26  27
ATOM     27  S2  SGN d5702      62.531  36.837  40.256  0.00  0.00     0.251 S 
ATOM     28  O4S SGN d5702      63.877  36.635  40.684  0.00  0.00    -0.572 OA
ATOM     29  O5S SGN d5702      62.067  35.655  39.586  0.00  0.00    -0.572 OA
ATOM     30  O6S SGN d5702      61.722  37.203  41.382  0.00  0.00    -0.572 OA
ENDBRANCH  26  27
ENDBRANCH  25  26
ENDBRANCH   3  25
BRANCH   5  31
ATOM     31  O3  SGN d5702      63.560  43.966  38.804  0.00  0.00    -0.391 OA
ATOM     32  H   SGN d5702      63.889  43.711  37.928  0.00  0.00     0.210 HD
ENDBRANCH   5  31
BRANCH   2  33
ATOM     33  N   SGN d5702      63.219  43.961  41.583  0.00  0.00    -0.189 NA
ATOM     34  H   SGN d5702      62.368  43.746  42.104  0.00  0.00     0.143 HD
BRANCH  33  35
ATOM     35  S1  SGN d5702      64.461  44.501  42.718  0.00  0.00     0.183 S 
ATOM     36  O1S SGN d5702      65.746  44.019  42.254  0.00  0.00    -0.582 OA
ATOM     37  O2S SGN d5702      64.211  43.904  43.989  0.00  0.00    -0.582 OA
ATOM     38  O3S SGN d5702      64.352  45.947  42.741  0.00  0.00    -0.582 OA
ENDBRANCH  33  35
ENDBRANCH   2  33
BRANCH   6  39
ATOM     39  O1  SGN d5702      61.711  41.637  41.822  0.00  0.00    -0.369 OA
ATOM     40  H   SGN d5702      61.456  42.531  42.100  0.00  0.00     0.212 HD
ENDBRANCH   6  39
TORSDOF 14
ENDMDL
MODEL 89
REMARK VINA RESULT:      -3.2      3.472      6.715
REMARK  14 active torsions:
REMARK  status: ('A' for Active; 'I' for Inactive)
REMARK    1  A    between atoms: C5_1  and  C6_23 
REMARK    2  A    between atoms: S2_5  and  O6_7 
REMARK    3  A    between atoms: O1_6  and  C1_35 
REMARK    4  A    between atoms: O6_7  and  C6_21 
REMARK    5  A    between atoms: O2_9  and  C2_28 
REMARK    6  A    between atoms: O2_9  and  S_13 
REMARK    7  A    between atoms: C3_10  and  O3_20 
REMARK    8  A    between atoms: C1_11  and  O4_12 
REMARK    9  A    between atoms: O4_12  and  C4_19 
REMARK   10  A    between atoms: C2_15  and  N_29 
REMARK   11  A    between atoms: C5_17  and  C6_21 
REMARK   12  A    between atoms: C6_23  and  O61_33 
REMARK   13  A    between atoms: O3_24  and  C3_26 
REMARK   14  A    between atoms: S1_27  and  N_29 
ROOT
ATOM      1  O5  SGN d5702      65.190  35.002  37.493  0.00  0.00    -0.350 OA
ATOM      2  C2  SGN d5702      63.442  34.987  39.138  0.00  0.00     0.160 C 
ATOM      3  C5  SGN d5702      64.803  36.254  36.981  0.00  0.00     0.181 C 
ATOM      4  C4  SGN d5702      64.125  37.068  38.101  0.00  0.00     0.186 C 
ATOM      5  C3  SGN d5702      62.884  36.268  38.579  0.00  0.00     0.173 C 
ATOM      6  C1  SGN d5702      64.146  34.198  38.050  0.00  0.00     0.278 C 
ENDROOT
BRANCH   4   7
ATOM      7  O4  SGN d5702      63.767  38.349  37.513  0.00  0.00    -0.348 OA
BRANCH   7   8
ATOM      8  C1  IDU d1623      63.735  39.596  38.175  0.00  0.00     0.294 C 
ATOM      9  O5  IDU d1623      65.065  40.137  38.466  0.00  0.00    -0.343 OA
ATOM     10  C5  IDU d1623      65.043  41.370  39.269  0.00  0.00     0.224 C 
ATOM     11  C4  IDU d1623      64.286  42.457  38.487  0.00  0.00     0.077 C 
ATOM     12  C3  IDU d1623      62.868  41.963  38.159  0.00  0.00     0.156 C 
ATOM     13  C2  IDU d1623      62.999  40.664  37.350  0.00  0.00     0.228 C 
BRANCH  10  14
ATOM     14  C6  IDU d1623      66.435  41.872  39.543  0.00  0.00     0.170 C 
ATOM     15  O62 IDU d1623      66.879  41.762  40.696  0.00  0.00    -0.648 OA
BRANCH  14  16
ATOM     16  O61 IDU d1623      67.068  42.374  38.593  0.00  0.00    -0.774 OA
ENDBRANCH  14  16
ENDBRANCH  10  14
BRANCH  12  18
ATOM     18  O3  IDU d1623      62.170  41.720  39.349  0.00  0.00    -0.393 OA
ATOM     19  H   IDU d1623      62.798  41.481  40.049  0.00  0.00     0.210 HD
ENDBRANCH  12  18
BRANCH  13  20
ATOM     20  O2  IDU d1623      63.758  40.901  36.188  0.00  0.00    -0.244 OA
BRANCH  20  21
ATOM     21  S   IDU d1623      62.919  41.355  34.742  0.00  0.00     0.252 S 
ATOM     22  O3S IDU d1623      62.856  42.763  34.622  0.00  0.00    -0.572 OA
ATOM     23  O1S IDU d1623      61.633  40.725  34.797  0.00  0.00    -0.572 OA
ATOM     24  O2S IDU d1623      63.628  40.883  33.563  0.00  0.00    -0.572 OA
ENDBRANCH  20  21
ENDBRANCH  13  20
ENDBRANCH   7   8
ENDBRANCH   4   7
BRANCH   3  25
ATOM     25  C6  SGN d5702      66.039  36.922  36.465  0.00  0.00     0.227 C 
BRANCH  25  26
ATOM     26  O6  SGN d5702      67.080  36.311  37.214  0.00  0.00    -0.254 OA
BRANCH  26  27
ATOM     27  S2  SGN d5702      68.011  37.293  38.293  0.00  0.00     0.251 S 
ATOM     28  O4S SGN d5702      67.803  38.683  38.042  0.00  0.00    -0.572 OA
ATOM     29  O5S SGN d5702      69.400  36.983  38.105  0.00  0.00    -0.572 OA
ATOM     30  O6S SGN d5702      67.532  36.970  39.605  0.00  0.00    -0.572 OA
ENDBRANCH  26  27
ENDBRANCH  25  26
ENDBRANCH   3  25
BRANCH   5  31
ATOM     31  O3  SGN d5702      62.235  36.966  39.614  0.00  0.00    -0.391 OA
ATOM     32  H   SGN d5702      62.779  37.721  39.886  0.00  0.00     0.210 HD
ENDBRANCH   5  31
BRANCH   2  33
ATOM     33  N   SGN d5702      62.390  34.169  39.647  0.00  0.00    -0.189 NA
ATOM     34  H   SGN d5702      62.429  33.259  39.189  0.00  0.00     0.143 HD
BRANCH  33  35
ATOM     35  S1  SGN d5702      62.522  33.935  41.393  0.00  0.00     0.183 S 
ATOM     36  O1S SGN d5702      63.876  33.519  41.700  0.00  0.00    -0.582 OA
ATOM     37  O2S SGN d5702      61.649  32.876  41.781  0.00  0.00    -0.582 OA
ATOM     38  O3S SGN d5702      62.155  35.212  41.977  0.00  0.00    -0.582 OA
ENDBRANCH  33  35
ENDBRANCH   2  33
BRANCH   6  39
ATOM     39  O1  SGN d5702      63.267  33.762  37.041  0.00  0.00    -0.369 OA
ATOM     40  H   SGN d5702      63.778  33.382  36.309  0.00  0.00     0.212 HD
ENDBRANCH   6  39
TORSDOF 14
ENDMDL
MODEL 90
REMARK VINA RESULT:      -3.2      3.589      7.887
REMARK  14 active torsions:
REMARK  status: ('A' for Active; 'I' for Inactive)
REMARK    1  A    between atoms: C5_1  and  C6_23 
REMARK    2  A    between atoms: S2_5  and  O6_7 
REMARK    3  A    between atoms: O1_6  and  C1_35 
REMARK    4  A    between atoms: O6_7  and  C6_21 
REMARK    5  A    between atoms: O2_9  and  C2_28 
REMARK    6  A    between atoms: O2_9  and  S_13 
REMARK    7  A    between atoms: C3_10  and  O3_20 
REMARK    8  A    between atoms: C1_11  and  O4_12 
REMARK    9  A    between atoms: O4_12  and  C4_19 
REMARK   10  A    between atoms: C2_15  and  N_29 
REMARK   11  A    between atoms: C5_17  and  C6_21 
REMARK   12  A    between atoms: C6_23  and  O61_33 
REMARK   13  A    between atoms: O3_24  and  C3_26 
REMARK   14  A    between atoms: S1_27  and  N_29 
ROOT
ATOM      1  O5  SGN d5702      65.055  44.653  36.613  0.00  0.00    -0.350 OA
ATOM      2  C2  SGN d5702      63.681  43.861  34.810  0.00  0.00     0.160 C 
ATOM      3  C5  SGN d5702      64.411  43.840  37.563  0.00  0.00     0.181 C 
ATOM      4  C4  SGN d5702      63.863  42.581  36.861  0.00  0.00     0.186 C 
ATOM      5  C3  SGN d5702      62.857  43.049  35.775  0.00  0.00     0.173 C 
ATOM      6  C1  SGN d5702      64.258  45.081  35.505  0.00  0.00     0.278 C 
ENDROOT
BRANCH   4   7
ATOM      7  O4  SGN d5702      63.228  41.782  37.897  0.00  0.00    -0.348 OA
BRANCH   7   8
ATOM      8  C1  IDU d1623      63.079  40.377  37.897  0.00  0.00     0.294 C 
ATOM      9  O5  IDU d1623      64.340  39.656  37.718  0.00  0.00    -0.343 OA
ATOM     10  C5  IDU d1623      64.180  38.199  37.589  0.00  0.00     0.224 C 
ATOM     11  C4  IDU d1623      63.540  37.655  38.877  0.00  0.00     0.077 C 
ATOM     12  C3  IDU d1623      62.196  38.358  39.122  0.00  0.00     0.156 C 
ATOM     13  C2  IDU d1623      62.467  39.868  39.212  0.00  0.00     0.228 C 
BRANCH  10  14
ATOM     14  C6  IDU d1623      65.506  37.515  37.397  0.00  0.00     0.170 C 
ATOM     15  O62 IDU d1623      66.365  37.642  38.283  0.00  0.00    -0.648 OA
BRANCH  14  16
ATOM     16  O61 IDU d1623      65.673  36.855  36.351  0.00  0.00    -0.774 OA
ENDBRANCH  14  16
ENDBRANCH  10  14
BRANCH  12  18
ATOM     18  O3  IDU d1623      61.326  38.088  38.059  0.00  0.00    -0.393 OA
ATOM     19  H   IDU d1623      61.828  37.716  37.317  0.00  0.00     0.210 HD
ENDBRANCH  12  18
BRANCH  13  20
ATOM     20  O2  IDU d1623      63.394  40.125  40.240  0.00  0.00    -0.244 OA
BRANCH  20  21
ATOM     21  S   IDU d1623      62.888  41.117  41.568  0.00  0.00     0.252 S 
ATOM     22  O3S IDU d1623      62.456  42.384  41.109  0.00  0.00    -0.572 OA
ATOM     23  O1S IDU d1623      63.991  41.181  42.478  0.00  0.00    -0.572 OA
ATOM     24  O2S IDU d1623      61.745  40.526  42.248  0.00  0.00    -0.572 OA
ENDBRANCH  20  21
ENDBRANCH  13  20
ENDBRANCH   7   8
ENDBRANCH   4   7
BRANCH   3  25
ATOM     25  C6  SGN d5702      65.421  43.505  38.615  0.00  0.00     0.227 C 
BRANCH  25  26
ATOM     26  O6  SGN d5702      66.523  43.012  37.868  0.00  0.00    -0.254 OA
BRANCH  26  27
ATOM     27  S2  SGN d5702      68.098  43.057  38.585  0.00  0.00     0.251 S 
ATOM     28  O4S SGN d5702      69.119  43.135  37.591  0.00  0.00    -0.572 OA
ATOM     29  O5S SGN d5702      68.281  41.861  39.356  0.00  0.00    -0.572 OA
ATOM     30  O6S SGN d5702      68.116  44.251  39.379  0.00  0.00    -0.572 OA
ENDBRANCH  26  27
ENDBRANCH  25  26
ENDBRANCH   3  25
BRANCH   5  31
ATOM     31  O3  SGN d5702      62.336  41.934  35.093  0.00  0.00    -0.391 OA
ATOM     32  H   SGN d5702      62.985  41.213  35.111  0.00  0.00     0.210 HD
ENDBRANCH   5  31
BRANCH   2  33
ATOM     33  N   SGN d5702      62.869  44.324  33.734  0.00  0.00    -0.189 NA
ATOM     34  H   SGN d5702      62.490  45.240  33.978  0.00  0.00     0.143 HD
BRANCH  33  35
ATOM     35  S1  SGN d5702      63.783  44.467  32.229  0.00  0.00     0.183 S 
ATOM     36  O1S SGN d5702      64.139  45.859  32.039  0.00  0.00    -0.582 OA
ATOM     37  O2S SGN d5702      62.941  44.087  31.143  0.00  0.00    -0.582 OA
ATOM     38  O3S SGN d5702      64.925  43.588  32.394  0.00  0.00    -0.582 OA
ENDBRANCH  33  35
ENDBRANCH   2  33
BRANCH   6  39
ATOM     39  O1  SGN d5702      63.264  45.982  35.931  0.00  0.00    -0.369 OA
ATOM     40  H   SGN d5702      62.825  46.368  35.156  0.00  0.00     0.212 HD
ENDBRANCH   6  39
TORSDOF 14
ENDMDL
MODEL 91
REMARK VINA RESULT:      -3.2      3.268      5.412
REMARK  14 active torsions:
REMARK  status: ('A' for Active; 'I' for Inactive)
REMARK    1  A    between atoms: C5_1  and  C6_23 
REMARK    2  A    between atoms: S2_5  and  O6_7 
REMARK    3  A    between atoms: O1_6  and  C1_35 
REMARK    4  A    between atoms: O6_7  and  C6_21 
REMARK    5  A    between atoms: O2_9  and  C2_28 
REMARK    6  A    between atoms: O2_9  and  S_13 
REMARK    7  A    between atoms: C3_10  and  O3_20 
REMARK    8  A    between atoms: C1_11  and  O4_12 
REMARK    9  A    between atoms: O4_12  and  C4_19 
REMARK   10  A    between atoms: C2_15  and  N_29 
REMARK   11  A    between atoms: C5_17  and  C6_21 
REMARK   12  A    between atoms: C6_23  and  O61_33 
REMARK   13  A    between atoms: O3_24  and  C3_26 
REMARK   14  A    between atoms: S1_27  and  N_29 
ROOT
ATOM      1  O5  SGN d5702      60.691  44.433  37.560  0.00  0.00    -0.350 OA
ATOM      2  C2  SGN d5702      62.126  44.367  39.483  0.00  0.00     0.160 C 
ATOM      3  C5  SGN d5702      61.731  44.091  36.677  0.00  0.00     0.181 C 
ATOM      4  C4  SGN d5702      62.779  43.251  37.433  0.00  0.00     0.186 C 
ATOM      5  C3  SGN d5702      63.321  44.118  38.601  0.00  0.00     0.173 C 
ATOM      6  C1  SGN d5702      61.072  45.159  38.732  0.00  0.00     0.278 C 
ENDROOT
BRANCH   4   7
ATOM      7  O4  SGN d5702      63.811  42.920  36.464  0.00  0.00    -0.348 OA
BRANCH   7   8
ATOM      8  C1  IDU d1623      64.815  41.937  36.612  0.00  0.00     0.294 C 
ATOM      9  O5  IDU d1623      64.288  40.605  36.914  0.00  0.00    -0.343 OA
ATOM     10  C5  IDU d1623      65.329  39.603  37.196  0.00  0.00     0.224 C 
ATOM     11  C4  IDU d1623      66.222  39.452  35.954  0.00  0.00     0.077 C 
ATOM     12  C3  IDU d1623      66.827  40.816  35.585  0.00  0.00     0.156 C 
ATOM     13  C2  IDU d1623      65.666  41.792  35.340  0.00  0.00     0.228 C 
BRANCH  10  14
ATOM     14  C6  IDU d1623      64.728  38.260  37.510  0.00  0.00     0.170 C 
ATOM     15  O62 IDU d1623      65.281  37.249  37.051  0.00  0.00    -0.648 OA
BRANCH  14  16
ATOM     16  O61 IDU d1623      63.699  38.235  38.216  0.00  0.00    -0.774 OA
ENDBRANCH  14  16
ENDBRANCH  10  14
BRANCH  12  18
ATOM     18  O3  IDU d1623      67.626  41.274  36.639  0.00  0.00    -0.393 OA
ATOM     19  H   IDU d1623      67.060  41.548  37.378  0.00  0.00     0.210 HD
ENDBRANCH  12  18
BRANCH  13  20
ATOM     20  O2  IDU d1623      64.829  41.293  34.323  0.00  0.00    -0.244 OA
BRANCH  20  21
ATOM     21  S   IDU d1623      64.617  42.251  32.895  0.00  0.00     0.252 S 
ATOM     22  O3S IDU d1623      65.852  42.793  32.469  0.00  0.00    -0.572 OA
ATOM     23  O1S IDU d1623      63.631  43.242  33.206  0.00  0.00    -0.572 OA
ATOM     24  O2S IDU d1623      64.136  41.433  31.792  0.00  0.00    -0.572 OA
ENDBRANCH  20  21
ENDBRANCH  13  20
ENDBRANCH   7   8
ENDBRANCH   4   7
BRANCH   3  25
ATOM     25  C6  SGN d5702      61.115  43.335  35.540  0.00  0.00     0.227 C 
BRANCH  25  26
ATOM     26  O6  SGN d5702      60.552  42.194  36.171  0.00  0.00    -0.254 OA
BRANCH  26  27
ATOM     27  S2  SGN d5702      60.881  40.632  35.503  0.00  0.00     0.251 S 
ATOM     28  O4S SGN d5702      62.040  40.656  34.671  0.00  0.00    -0.572 OA
ATOM     29  O5S SGN d5702      59.748  40.223  34.723  0.00  0.00    -0.572 OA
ATOM     30  O6S SGN d5702      61.125  39.783  36.633  0.00  0.00    -0.572 OA
ENDBRANCH  26  27
ENDBRANCH  25  26
ENDBRANCH   3  25
BRANCH   5  31
ATOM     31  O3  SGN d5702      64.276  43.389  39.334  0.00  0.00    -0.391 OA
ATOM     32  H   SGN d5702      64.937  43.021  38.728  0.00  0.00     0.210 HD
ENDBRANCH   5  31
BRANCH   2  33
ATOM     33  N   SGN d5702      62.505  45.134  40.625  0.00  0.00    -0.189 NA
ATOM     34  H   SGN d5702      61.945  45.986  40.650  0.00  0.00     0.143 HD
BRANCH  33  35
ATOM     35  S1  SGN d5702      62.258  44.244  42.130  0.00  0.00     0.183 S 
ATOM     36  O1S SGN d5702      63.210  44.726  43.110  0.00  0.00    -0.582 OA
ATOM     37  O2S SGN d5702      62.539  42.865  41.900  0.00  0.00    -0.582 OA
ATOM     38  O3S SGN d5702      60.874  44.485  42.491  0.00  0.00    -0.582 OA
ENDBRANCH  33  35
ENDBRANCH   2  33
BRANCH   6  39
ATOM     39  O1  SGN d5702      61.507  46.454  38.390  0.00  0.00    -0.369 OA
ATOM     40  H   SGN d5702      60.875  46.855  37.774  0.00  0.00     0.212 HD
ENDBRANCH   6  39
TORSDOF 14
ENDMDL
MODEL 92
REMARK VINA RESULT:      -3.2      3.344      5.995
REMARK  14 active torsions:
REMARK  status: ('A' for Active; 'I' for Inactive)
REMARK    1  A    between atoms: C5_1  and  C6_23 
REMARK    2  A    between atoms: S2_5  and  O6_7 
REMARK    3  A    between atoms: O1_6  and  C1_35 
REMARK    4  A    between atoms: O6_7  and  C6_21 
REMARK    5  A    between atoms: O2_9  and  C2_28 
REMARK    6  A    between atoms: O2_9  and  S_13 
REMARK    7  A    between atoms: C3_10  and  O3_20 
REMARK    8  A    between atoms: C1_11  and  O4_12 
REMARK    9  A    between atoms: O4_12  and  C4_19 
REMARK   10  A    between atoms: C2_15  and  N_29 
REMARK   11  A    between atoms: C5_17  and  C6_21 
REMARK   12  A    between atoms: C6_23  and  O61_33 
REMARK   13  A    between atoms: O3_24  and  C3_26 
REMARK   14  A    between atoms: S1_27  and  N_29 
ROOT
ATOM      1  O5  SGN d5702      63.665  37.841  37.975  0.00  0.00    -0.350 OA
ATOM      2  C2  SGN d5702      62.547  38.750  39.895  0.00  0.00     0.160 C 
ATOM      3  C5  SGN d5702      63.677  39.076  37.302  0.00  0.00     0.181 C 
ATOM      4  C4  SGN d5702      63.689  40.216  38.340  0.00  0.00     0.186 C 
ATOM      5  C3  SGN d5702      62.406  40.080  39.203  0.00  0.00     0.173 C 
ATOM      6  C1  SGN d5702      62.576  37.625  38.877  0.00  0.00     0.278 C 
ENDROOT
BRANCH   4   7
ATOM      7  O4  SGN d5702      63.717  41.457  37.581  0.00  0.00    -0.348 OA
BRANCH   7   8
ATOM      8  C1  IDU d1623      64.388  42.646  37.944  0.00  0.00     0.294 C 
ATOM      9  O5  IDU d1623      65.831  42.599  37.705  0.00  0.00    -0.343 OA
ATOM     10  C5  IDU d1623      66.555  43.782  38.198  0.00  0.00     0.224 C 
ATOM     11  C4  IDU d1623      66.027  45.027  37.467  0.00  0.00     0.077 C 
ATOM     12  C3  IDU d1623      64.511  45.151  37.689  0.00  0.00     0.156 C 
ATOM     13  C2  IDU d1623      63.855  43.862  37.171  0.00  0.00     0.228 C 
BRANCH  10  14
ATOM     14  C6  IDU d1623      68.032  43.672  37.932  0.00  0.00     0.170 C 
ATOM     15  O62 IDU d1623      68.603  44.632  37.391  0.00  0.00    -0.648 OA
BRANCH  14  16
ATOM     16  O61 IDU d1623      68.606  42.617  38.271  0.00  0.00    -0.774 OA
ENDBRANCH  14  16
ENDBRANCH  10  14
BRANCH  12  18
ATOM     18  O3  IDU d1623      64.250  45.308  39.056  0.00  0.00    -0.393 OA
ATOM     19  H   IDU d1623      63.317  45.109  39.231  0.00  0.00     0.210 HD
ENDBRANCH  12  18
BRANCH  13  20
ATOM     20  O2  IDU d1623      64.176  43.676  35.813  0.00  0.00    -0.244 OA
BRANCH  20  21
ATOM     21  S   IDU d1623      62.880  43.397  34.697  0.00  0.00     0.252 S 
ATOM     22  O3S IDU d1623      63.044  44.187  33.534  0.00  0.00    -0.572 OA
ATOM     23  O1S IDU d1623      61.663  43.661  35.404  0.00  0.00    -0.572 OA
ATOM     24  O2S IDU d1623      62.877  42.014  34.244  0.00  0.00    -0.572 OA
ENDBRANCH  20  21
ENDBRANCH  13  20
ENDBRANCH   7   8
ENDBRANCH   4   7
BRANCH   3  25
ATOM     25  C6  SGN d5702      64.894  39.092  36.430  0.00  0.00     0.227 C 
BRANCH  25  26
ATOM     26  O6  SGN d5702      65.626  37.957  36.867  0.00  0.00    -0.254 OA
BRANCH  26  27
ATOM     27  S2  SGN d5702      67.157  38.204  37.636  0.00  0.00     0.251 S 
ATOM     28  O4S SGN d5702      67.176  37.640  38.947  0.00  0.00    -0.572 OA
ATOM     29  O5S SGN d5702      67.397  39.616  37.727  0.00  0.00    -0.572 OA
ATOM     30  O6S SGN d5702      68.108  37.520  36.810  0.00  0.00    -0.572 OA
ENDBRANCH  26  27
ENDBRANCH  25  26
ENDBRANCH   3  25
BRANCH   5  31
ATOM     31  O3  SGN d5702      62.376  41.093  40.178  0.00  0.00    -0.391 OA
ATOM     32  H   SGN d5702      62.047  40.728  41.014  0.00  0.00     0.210 HD
ENDBRANCH   5  31
BRANCH   2  33
ATOM     33  N   SGN d5702      61.433  38.520  40.756  0.00  0.00    -0.189 NA
ATOM     34  H   SGN d5702      61.075  37.579  40.588  0.00  0.00     0.143 HD
BRANCH  33  35
ATOM     35  S1  SGN d5702      61.873  38.668  42.460  0.00  0.00     0.183 S 
ATOM     36  O1S SGN d5702      63.210  39.221  42.542  0.00  0.00    -0.582 OA
ATOM     37  O2S SGN d5702      61.911  37.365  43.039  0.00  0.00    -0.582 OA
ATOM     38  O3S SGN d5702      60.851  39.516  43.044  0.00  0.00    -0.582 OA
ENDBRANCH  33  35
ENDBRANCH   2  33
BRANCH   6  39
ATOM     39  O1  SGN d5702      61.365  37.503  38.169  0.00  0.00    -0.369 OA
ATOM     40  H   SGN d5702      61.353  36.658  37.693  0.00  0.00     0.212 HD
ENDBRANCH   6  39
TORSDOF 14
ENDMDL
MODEL 93
REMARK VINA RESULT:      -3.1      2.855      6.201
REMARK  14 active torsions:
REMARK  status: ('A' for Active; 'I' for Inactive)
REMARK    1  A    between atoms: C5_1  and  C6_23 
REMARK    2  A    between atoms: S2_5  and  O6_7 
REMARK    3  A    between atoms: O1_6  and  C1_35 
REMARK    4  A    between atoms: O6_7  and  C6_21 
REMARK    5  A    between atoms: O2_9  and  C2_28 
REMARK    6  A    between atoms: O2_9  and  S_13 
REMARK    7  A    between atoms: C3_10  and  O3_20 
REMARK    8  A    between atoms: C1_11  and  O4_12 
REMARK    9  A    between atoms: O4_12  and  C4_19 
REMARK   10  A    between atoms: C2_15  and  N_29 
REMARK   11  A    between atoms: C5_17  and  C6_21 
REMARK   12  A    between atoms: C6_23  and  O61_33 
REMARK   13  A    between atoms: O3_24  and  C3_26 
REMARK   14  A    between atoms: S1_27  and  N_29 
ROOT
ATOM      1  O5  SGN d5702      64.839  37.186  38.253  0.00  0.00    -0.350 OA
ATOM      2  C2  SGN d5702      62.805  37.348  39.518  0.00  0.00     0.160 C 
ATOM      3  C5  SGN d5702      64.398  38.103  37.281  0.00  0.00     0.181 C 
ATOM      4  C4  SGN d5702      63.396  39.080  37.928  0.00  0.00     0.186 C 
ATOM      5  C3  SGN d5702      62.205  38.242  38.466  0.00  0.00     0.173 C 
ATOM      6  C1  SGN d5702      63.823  36.410  38.896  0.00  0.00     0.278 C 
ENDROOT
BRANCH   4   7
ATOM      7  O4  SGN d5702      62.995  40.004  36.879  0.00  0.00    -0.348 OA
BRANCH   7   8
ATOM      8  C1  IDU d1623      62.385  41.265  37.062  0.00  0.00     0.294 C 
ATOM      9  O5  IDU d1623      63.087  42.119  38.022  0.00  0.00    -0.343 OA
ATOM     10  C5  IDU d1623      62.391  43.382  38.315  0.00  0.00     0.224 C 
ATOM     11  C4  IDU d1623      62.265  44.192  37.015  0.00  0.00     0.077 C 
ATOM     12  C3  IDU d1623      61.519  43.360  35.959  0.00  0.00     0.156 C 
ATOM     13  C2  IDU d1623      62.306  42.058  35.747  0.00  0.00     0.228 C 
BRANCH  10  14
ATOM     14  C6  IDU d1623      63.153  44.210  39.314  0.00  0.00     0.170 C 
ATOM     15  O62 IDU d1623      62.967  45.437  39.321  0.00  0.00    -0.648 OA
BRANCH  14  16
ATOM     16  O61 IDU d1623      63.936  43.617  40.084  0.00  0.00    -0.774 OA
ENDBRANCH  14  16
ENDBRANCH  10  14
BRANCH  12  18
ATOM     18  O3  IDU d1623      60.228  43.073  36.417  0.00  0.00    -0.393 OA
ATOM     19  H   IDU d1623      59.621  43.022  35.662  0.00  0.00     0.210 HD
ENDBRANCH  12  18
BRANCH  13  20
ATOM     20  O2  IDU d1623      63.624  42.356  35.351  0.00  0.00    -0.244 OA
BRANCH  20  21
ATOM     21  S   IDU d1623      64.135  41.859  33.772  0.00  0.00     0.252 S 
ATOM     22  O3S IDU d1623      63.557  40.614  33.429  0.00  0.00    -0.572 OA
ATOM     23  O1S IDU d1623      65.566  41.843  33.788  0.00  0.00    -0.572 OA
ATOM     24  O2S IDU d1623      63.682  42.803  32.761  0.00  0.00    -0.572 OA
ENDBRANCH  20  21
ENDBRANCH  13  20
ENDBRANCH   7   8
ENDBRANCH   4   7
BRANCH   3  25
ATOM     25  C6  SGN d5702      65.611  38.804  36.753  0.00  0.00     0.227 C 
BRANCH  25  26
ATOM     26  O6  SGN d5702      65.648  38.414  35.389  0.00  0.00    -0.254 OA
BRANCH  26  27
ATOM     27  S2  SGN d5702      66.606  37.042  34.944  0.00  0.00     0.251 S 
ATOM     28  O4S SGN d5702      65.811  35.860  34.856  0.00  0.00    -0.572 OA
ATOM     29  O5S SGN d5702      67.621  36.855  35.942  0.00  0.00    -0.572 OA
ATOM     30  O6S SGN d5702      67.136  37.356  33.650  0.00  0.00    -0.572 OA
ENDBRANCH  26  27
ENDBRANCH  25  26
ENDBRANCH   3  25
BRANCH   5  31
ATOM     31  O3  SGN d5702      61.264  39.089  39.080  0.00  0.00    -0.391 OA
ATOM     32  H   SGN d5702      61.715  39.871  39.434  0.00  0.00     0.210 HD
ENDBRANCH   5  31
BRANCH   2  33
ATOM     33  N   SGN d5702      61.794  36.544  40.120  0.00  0.00    -0.189 NA
ATOM     34  H   SGN d5702      61.946  35.570  39.856  0.00  0.00     0.143 HD
BRANCH  33  35
ATOM     35  S1  SGN d5702      61.813  36.666  41.882  0.00  0.00     0.183 S 
ATOM     36  O1S SGN d5702      63.060  37.286  42.285  0.00  0.00    -0.582 OA
ATOM     37  O2S SGN d5702      61.790  35.351  42.434  0.00  0.00    -0.582 OA
ATOM     38  O3S SGN d5702      60.637  37.442  42.223  0.00  0.00    -0.582 OA
ENDBRANCH  33  35
ENDBRANCH   2  33
BRANCH   6  39
ATOM     39  O1  SGN d5702      63.242  35.507  37.986  0.00  0.00    -0.369 OA
ATOM     40  H   SGN d5702      62.375  35.841  37.708  0.00  0.00     0.212 HD
ENDBRANCH   6  39
TORSDOF 14
ENDMDL
MODEL 94
REMARK VINA RESULT:      -3.1      3.828      7.028
REMARK  14 active torsions:
REMARK  status: ('A' for Active; 'I' for Inactive)
REMARK    1  A    between atoms: C5_1  and  C6_23 
REMARK    2  A    between atoms: S2_5  and  O6_7 
REMARK    3  A    between atoms: O1_6  and  C1_35 
REMARK    4  A    between atoms: O6_7  and  C6_21 
REMARK    5  A    between atoms: O2_9  and  C2_28 
REMARK    6  A    between atoms: O2_9  and  S_13 
REMARK    7  A    between atoms: C3_10  and  O3_20 
REMARK    8  A    between atoms: C1_11  and  O4_12 
REMARK    9  A    between atoms: O4_12  and  C4_19 
REMARK   10  A    between atoms: C2_15  and  N_29 
REMARK   11  A    between atoms: C5_17  and  C6_21 
REMARK   12  A    between atoms: C6_23  and  O61_33 
REMARK   13  A    between atoms: O3_24  and  C3_26 
REMARK   14  A    between atoms: S1_27  and  N_29 
ROOT
ATOM      1  O5  SGN d5702      64.520  35.547  37.166  0.00  0.00    -0.350 OA
ATOM      2  C2  SGN d5702      65.998  36.562  35.570  0.00  0.00     0.160 C 
ATOM      3  C5  SGN d5702      64.377  36.735  37.905  0.00  0.00     0.181 C 
ATOM      4  C4  SGN d5702      64.573  37.941  36.964  0.00  0.00     0.186 C 
ATOM      5  C3  SGN d5702      66.001  37.841  36.364  0.00  0.00     0.173 C 
ATOM      6  C1  SGN d5702      65.765  35.374  36.484  0.00  0.00     0.278 C 
ENDROOT
BRANCH   4   7
ATOM      7  O4  SGN d5702      64.398  39.129  37.784  0.00  0.00    -0.348 OA
BRANCH   7   8
ATOM      8  C1  IDU d1623      63.872  40.370  37.360  0.00  0.00     0.294 C 
ATOM      9  O5  IDU d1623      62.560  40.260  36.719  0.00  0.00    -0.343 OA
ATOM     10  C5  IDU d1623      62.063  41.527  36.160  0.00  0.00     0.224 C 
ATOM     11  C4  IDU d1623      61.913  42.548  37.300  0.00  0.00     0.077 C 
ATOM     12  C3  IDU d1623      63.264  42.728  38.011  0.00  0.00     0.156 C 
ATOM     13  C2  IDU d1623      63.707  41.352  38.531  0.00  0.00     0.228 C 
BRANCH  10  14
ATOM     14  C6  IDU d1623      60.718  41.350  35.508  0.00  0.00     0.170 C 
ATOM     15  O62 IDU d1623      59.880  42.255  35.639  0.00  0.00    -0.648 OA
BRANCH  14  16
ATOM     16  O61 IDU d1623      60.518  40.296  34.869  0.00  0.00    -0.774 OA
ENDBRANCH  14  16
ENDBRANCH  10  14
BRANCH  12  18
ATOM     18  O3  IDU d1623      64.207  43.227  37.104  0.00  0.00    -0.393 OA
ATOM     19  H   IDU d1623      64.998  43.513  37.586  0.00  0.00     0.210 HD
ENDBRANCH  12  18
BRANCH  13  20
ATOM     20  O2  IDU d1623      62.723  40.827  39.390  0.00  0.00    -0.244 OA
BRANCH  20  21
ATOM     21  S   IDU d1623      62.854  41.163  41.085  0.00  0.00     0.252 S 
ATOM     22  O3S IDU d1623      62.116  42.322  41.422  0.00  0.00    -0.572 OA
ATOM     23  O1S IDU d1623      64.252  41.267  41.378  0.00  0.00    -0.572 OA
ATOM     24  O2S IDU d1623      62.283  40.081  41.872  0.00  0.00    -0.572 OA
ENDBRANCH  20  21
ENDBRANCH  13  20
ENDBRANCH   7   8
ENDBRANCH   4   7
BRANCH   3  25
ATOM     25  C6  SGN d5702      63.012  36.713  38.519  0.00  0.00     0.227 C 
BRANCH  25  26
ATOM     26  O6  SGN d5702      62.660  35.338  38.487  0.00  0.00    -0.254 OA
BRANCH  26  27
ATOM     27  S2  SGN d5702      62.566  34.471  39.983  0.00  0.00     0.251 S 
ATOM     28  O4S SGN d5702      63.842  33.962  40.369  0.00  0.00    -0.572 OA
ATOM     29  O5S SGN d5702      61.652  33.377  39.817  0.00  0.00    -0.572 OA
ATOM     30  O6S SGN d5702      62.126  35.434  40.949  0.00  0.00    -0.572 OA
ENDBRANCH  26  27
ENDBRANCH  25  26
ENDBRANCH   3  25
BRANCH   5  31
ATOM     31  O3  SGN d5702      66.226  38.916  35.484  0.00  0.00    -0.391 OA
ATOM     32  H   SGN d5702      65.387  39.181  35.076  0.00  0.00     0.210 HD
ENDBRANCH   5  31
BRANCH   2  33
ATOM     33  N   SGN d5702      67.259  36.372  34.933  0.00  0.00    -0.189 NA
ATOM     34  H   SGN d5702      67.668  35.498  35.264  0.00  0.00     0.143 HD
BRANCH  33  35
ATOM     35  S1  SGN d5702      67.107  36.300  33.174  0.00  0.00     0.183 S 
ATOM     36  O1S SGN d5702      66.584  34.998  32.812  0.00  0.00    -0.582 OA
ATOM     37  O2S SGN d5702      68.406  36.417  32.596  0.00  0.00    -0.582 OA
ATOM     38  O3S SGN d5702      66.231  37.401  32.823  0.00  0.00    -0.582 OA
ENDBRANCH  33  35
ENDBRANCH   2  33
BRANCH   6  39
ATOM     39  O1  SGN d5702      66.812  35.187  37.408  0.00  0.00    -0.369 OA
ATOM     40  H   SGN d5702      66.499  35.407  38.299  0.00  0.00     0.212 HD
ENDBRANCH   6  39
TORSDOF 14
ENDMDL
MODEL 95
REMARK VINA RESULT:      -3.0      3.295      6.982
REMARK  14 active torsions:
REMARK  status: ('A' for Active; 'I' for Inactive)
REMARK    1  A    between atoms: C5_1  and  C6_23 
REMARK    2  A    between atoms: S2_5  and  O6_7 
REMARK    3  A    between atoms: O1_6  and  C1_35 
REMARK    4  A    between atoms: O6_7  and  C6_21 
REMARK    5  A    between atoms: O2_9  and  C2_28 
REMARK    6  A    between atoms: O2_9  and  S_13 
REMARK    7  A    between atoms: C3_10  and  O3_20 
REMARK    8  A    between atoms: C1_11  and  O4_12 
REMARK    9  A    between atoms: O4_12  and  C4_19 
REMARK   10  A    between atoms: C2_15  and  N_29 
REMARK   11  A    between atoms: C5_17  and  C6_21 
REMARK   12  A    between atoms: C6_23  and  O61_33 
REMARK   13  A    between atoms: O3_24  and  C3_26 
REMARK   14  A    between atoms: S1_27  and  N_29 
ROOT
ATOM      1  O5  SGN d5702      61.490  43.204  36.435  0.00  0.00    -0.350 OA
ATOM      2  C2  SGN d5702      62.115  44.275  38.491  0.00  0.00     0.160 C 
ATOM      3  C5  SGN d5702      62.609  42.352  36.448  0.00  0.00     0.181 C 
ATOM      4  C4  SGN d5702      63.042  42.112  37.908  0.00  0.00     0.186 C 
ATOM      5  C3  SGN d5702      63.400  43.491  38.525  0.00  0.00     0.173 C 
ATOM      6  C1  SGN d5702      61.661  44.481  37.057  0.00  0.00     0.278 C 
ENDROOT
BRANCH   4   7
ATOM      7  O4  SGN d5702      64.187  41.217  37.851  0.00  0.00    -0.348 OA
BRANCH   7   8
ATOM      8  C1  IDU d1623      64.391  40.066  38.645  0.00  0.00     0.294 C 
ATOM      9  O5  IDU d1623      63.696  38.879  38.143  0.00  0.00    -0.343 OA
ATOM     10  C5  IDU d1623      63.798  37.710  39.031  0.00  0.00     0.224 C 
ATOM     11  C4  IDU d1623      65.279  37.325  39.177  0.00  0.00     0.077 C 
ATOM     12  C3  IDU d1623      66.073  38.525  39.718  0.00  0.00     0.156 C 
ATOM     13  C2  IDU d1623      65.879  39.694  38.741  0.00  0.00     0.228 C 
BRANCH  10  14
ATOM     14  C6  IDU d1623      63.058  36.527  38.469  0.00  0.00     0.170 C 
ATOM     15  O62 IDU d1623      61.817  36.545  38.497  0.00  0.00    -0.648 OA
BRANCH  14  16
ATOM     16  O61 IDU d1623      63.734  35.587  38.003  0.00  0.00    -0.774 OA
ENDBRANCH  14  16
ENDBRANCH  10  14
BRANCH  12  18
ATOM     18  O3  IDU d1623      65.589  38.872  40.986  0.00  0.00    -0.393 OA
ATOM     19  H   IDU d1623      66.030  38.331  41.659  0.00  0.00     0.210 HD
ENDBRANCH  12  18
BRANCH  13  20
ATOM     20  O2  IDU d1623      66.307  39.316  37.454  0.00  0.00    -0.244 OA
BRANCH  20  21
ATOM     21  S   IDU d1623      67.631  40.179  36.745  0.00  0.00     0.252 S 
ATOM     22  O3S IDU d1623      67.278  41.529  36.509  0.00  0.00    -0.572 OA
ATOM     23  O1S IDU d1623      68.000  39.466  35.559  0.00  0.00    -0.572 OA
ATOM     24  O2S IDU d1623      68.769  40.215  37.651  0.00  0.00    -0.572 OA
ENDBRANCH  20  21
ENDBRANCH  13  20
ENDBRANCH   7   8
ENDBRANCH   4   7
BRANCH   3  25
ATOM     25  C6  SGN d5702      62.208  41.084  35.762  0.00  0.00     0.227 C 
BRANCH  25  26
ATOM     26  O6  SGN d5702      62.488  41.348  34.395  0.00  0.00    -0.254 OA
BRANCH  26  27
ATOM     27  S2  SGN d5702      64.068  40.988  33.788  0.00  0.00     0.251 S 
ATOM     28  O4S SGN d5702      64.007  40.448  32.468  0.00  0.00    -0.572 OA
ATOM     29  O5S SGN d5702      64.683  40.030  34.662  0.00  0.00    -0.572 OA
ATOM     30  O6S SGN d5702      64.755  42.246  33.755  0.00  0.00    -0.572 OA
ENDBRANCH  26  27
ENDBRANCH  25  26
ENDBRANCH   3  25
BRANCH   5  31
ATOM     31  O3  SGN d5702      63.791  43.327  39.867  0.00  0.00    -0.391 OA
ATOM     32  H   SGN d5702      63.715  42.393  40.114  0.00  0.00     0.210 HD
ENDBRANCH   5  31
BRANCH   2  33
ATOM     33  N   SGN d5702      62.306  45.564  39.069  0.00  0.00    -0.189 NA
ATOM     34  H   SGN d5702      62.087  46.274  38.370  0.00  0.00     0.143 HD
BRANCH  33  35
ATOM     35  S1  SGN d5702      61.273  45.815  40.480  0.00  0.00     0.183 S 
ATOM     36  O1S SGN d5702      59.989  46.311  40.026  0.00  0.00    -0.582 OA
ATOM     37  O2S SGN d5702      61.857  46.823  41.303  0.00  0.00    -0.582 OA
ATOM     38  O3S SGN d5702      61.203  44.522  41.134  0.00  0.00    -0.582 OA
ENDBRANCH  33  35
ENDBRANCH   2  33
BRANCH   6  39
ATOM     39  O1  SGN d5702      62.553  45.276  36.315  0.00  0.00    -0.369 OA
ATOM     40  H   SGN d5702      63.300  45.535  36.877  0.00  0.00     0.212 HD
ENDBRANCH   6  39
TORSDOF 14
ENDMDL
MODEL 96
REMARK VINA RESULT:      -2.9      1.736      2.233
REMARK  14 active torsions:
REMARK  status: ('A' for Active; 'I' for Inactive)
REMARK    1  A    between atoms: C5_1  and  C6_23 
REMARK    2  A    between atoms: S2_5  and  O6_7 
REMARK    3  A    between atoms: O1_6  and  C1_35 
REMARK    4  A    between atoms: O6_7  and  C6_21 
REMARK    5  A    between atoms: O2_9  and  C2_28 
REMARK    6  A    between atoms: O2_9  and  S_13 
REMARK    7  A    between atoms: C3_10  and  O3_20 
REMARK    8  A    between atoms: C1_11  and  O4_12 
REMARK    9  A    between atoms: O4_12  and  C4_19 
REMARK   10  A    between atoms: C2_15  and  N_29 
REMARK   11  A    between atoms: C5_17  and  C6_21 
REMARK   12  A    between atoms: C6_23  and  O61_33 
REMARK   13  A    between atoms: O3_24  and  C3_26 
REMARK   14  A    between atoms: S1_27  and  N_29 
ROOT
ATOM      1  O5  SGN d5702      61.063  39.187  37.184  0.00  0.00    -0.350 OA
ATOM      2  C2  SGN d5702      63.165  38.253  37.871  0.00  0.00     0.160 C 
ATOM      3  C5  SGN d5702      61.648  40.399  36.774  0.00  0.00     0.181 C 
ATOM      4  C4  SGN d5702      63.106  40.136  36.346  0.00  0.00     0.186 C 
ATOM      5  C3  SGN d5702      63.858  39.556  37.574  0.00  0.00     0.173 C 
ATOM      6  C1  SGN d5702      61.718  38.501  38.254  0.00  0.00     0.278 C 
ENDROOT
BRANCH   4   7
ATOM      7  O4  SGN d5702      63.642  41.419  35.922  0.00  0.00    -0.348 OA
BRANCH   7   8
ATOM      8  C1  IDU d1623      64.983  41.691  35.568  0.00  0.00     0.294 C 
ATOM      9  O5  IDU d1623      65.498  40.814  34.515  0.00  0.00    -0.343 OA
ATOM     10  C5  IDU d1623      66.929  41.003  34.230  0.00  0.00     0.224 C 
ATOM     11  C4  IDU d1623      67.152  42.447  33.750  0.00  0.00     0.077 C 
ATOM     12  C3  IDU d1623      66.648  43.430  34.818  0.00  0.00     0.156 C 
ATOM     13  C2  IDU d1623      65.160  43.132  35.063  0.00  0.00     0.228 C 
BRANCH  10  14
ATOM     14  C6  IDU d1623      67.402  40.069  33.149  0.00  0.00     0.170 C 
ATOM     15  O62 IDU d1623      67.504  38.863  33.420  0.00  0.00    -0.648 OA
BRANCH  14  16
ATOM     16  O61 IDU d1623      67.669  40.561  32.033  0.00  0.00    -0.774 OA
ENDBRANCH  14  16
ENDBRANCH  10  14
BRANCH  12  18
ATOM     18  O3  IDU d1623      67.376  43.249  36.001  0.00  0.00    -0.393 OA
ATOM     19  H   IDU d1623      68.053  42.568  35.862  0.00  0.00     0.210 HD
ENDBRANCH  12  18
BRANCH  13  20
ATOM     20  O2  IDU d1623      64.445  43.250  33.856  0.00  0.00    -0.244 OA
BRANCH  20  21
ATOM     21  S   IDU d1623      64.122  44.841  33.250  0.00  0.00     0.252 S 
ATOM     22  O3S IDU d1623      65.130  45.243  32.342  0.00  0.00    -0.572 OA
ATOM     23  O1S IDU d1623      64.000  45.700  34.390  0.00  0.00    -0.572 OA
ATOM     24  O2S IDU d1623      62.875  44.866  32.501  0.00  0.00    -0.572 OA
ENDBRANCH  20  21
ENDBRANCH  13  20
ENDBRANCH   7   8
ENDBRANCH   4   7
BRANCH   3  25
ATOM     25  C6  SGN d5702      60.816  40.933  35.650  0.00  0.00     0.227 C 
BRANCH  25  26
ATOM     26  O6  SGN d5702      60.015  41.924  36.276  0.00  0.00    -0.254 OA
BRANCH  26  27
ATOM     27  S2  SGN d5702      60.584  43.558  36.300  0.00  0.00     0.251 S 
ATOM     28  O4S SGN d5702      59.500  44.486  36.316  0.00  0.00    -0.572 OA
ATOM     29  O5S SGN d5702      61.378  43.780  35.125  0.00  0.00    -0.572 OA
ATOM     30  O6S SGN d5702      61.332  43.678  37.518  0.00  0.00    -0.572 OA
ENDBRANCH  26  27
ENDBRANCH  25  26
ENDBRANCH   3  25
BRANCH   5  31
ATOM     31  O3  SGN d5702      65.196  39.286  37.230  0.00  0.00    -0.391 OA
ATOM     32  H   SGN d5702      65.635  40.109  36.968  0.00  0.00     0.210 HD
ENDBRANCH   5  31
BRANCH   2  33
ATOM     33  N   SGN d5702      63.794  37.599  38.971  0.00  0.00    -0.189 NA
ATOM     34  H   SGN d5702      63.073  37.196  39.571  0.00  0.00     0.143 HD
BRANCH  33  35
ATOM     35  S1  SGN d5702      64.879  36.310  38.441  0.00  0.00     0.183 S 
ATOM     36  O1S SGN d5702      64.720  36.136  37.011  0.00  0.00    -0.582 OA
ATOM     37  O2S SGN d5702      64.486  35.091  39.069  0.00  0.00    -0.582 OA
ATOM     38  O3S SGN d5702      66.206  36.745  38.833  0.00  0.00    -0.582 OA
ENDBRANCH  33  35
ENDBRANCH   2  33
BRANCH   6  39
ATOM     39  O1  SGN d5702      61.591  39.225  39.455  0.00  0.00    -0.369 OA
ATOM     40  H   SGN d5702      60.928  39.924  39.342  0.00  0.00     0.212 HD
ENDBRANCH   6  39
TORSDOF 14
ENDMDL
MODEL 97
REMARK VINA RESULT:      -2.8      2.840      5.854
REMARK  14 active torsions:
REMARK  status: ('A' for Active; 'I' for Inactive)
REMARK    1  A    between atoms: C5_1  and  C6_23 
REMARK    2  A    between atoms: S2_5  and  O6_7 
REMARK    3  A    between atoms: O1_6  and  C1_35 
REMARK    4  A    between atoms: O6_7  and  C6_21 
REMARK    5  A    between atoms: O2_9  and  C2_28 
REMARK    6  A    between atoms: O2_9  and  S_13 
REMARK    7  A    between atoms: C3_10  and  O3_20 
REMARK    8  A    between atoms: C1_11  and  O4_12 
REMARK    9  A    between atoms: O4_12  and  C4_19 
REMARK   10  A    between atoms: C2_15  and  N_29 
REMARK   11  A    between atoms: C5_17  and  C6_21 
REMARK   12  A    between atoms: C6_23  and  O61_33 
REMARK   13  A    between atoms: O3_24  and  C3_26 
REMARK   14  A    between atoms: S1_27  and  N_29 
ROOT
ATOM      1  O5  SGN d5702      64.683  36.890  38.383  0.00  0.00    -0.350 OA
ATOM      2  C2  SGN d5702      62.780  37.366  39.767  0.00  0.00     0.160 C 
ATOM      3  C5  SGN d5702      64.268  37.778  37.374  0.00  0.00     0.181 C 
ATOM      4  C4  SGN d5702      63.425  38.903  38.007  0.00  0.00     0.186 C 
ATOM      5  C3  SGN d5702      62.198  38.243  38.691  0.00  0.00     0.173 C 
ATOM      6  C1  SGN d5702      63.644  36.280  39.153  0.00  0.00     0.278 C 
ENDROOT
BRANCH   4   7
ATOM      7  O4  SGN d5702      63.044  39.788  36.918  0.00  0.00    -0.348 OA
BRANCH   7   8
ATOM      8  C1  IDU d1623      62.366  41.021  37.039  0.00  0.00     0.294 C 
ATOM      9  O5  IDU d1623      62.981  41.934  38.005  0.00  0.00    -0.343 OA
ATOM     10  C5  IDU d1623      62.211  43.167  38.232  0.00  0.00     0.224 C 
ATOM     11  C4  IDU d1623      62.104  43.936  36.905  0.00  0.00     0.077 C 
ATOM     12  C3  IDU d1623      61.449  43.042  35.841  0.00  0.00     0.156 C 
ATOM     13  C2  IDU d1623      62.308  41.775  35.701  0.00  0.00     0.228 C 
BRANCH  10  14
ATOM     14  C6  IDU d1623      62.886  44.058  39.240  0.00  0.00     0.170 C 
ATOM     15  O62 IDU d1623      62.882  45.281  39.035  0.00  0.00    -0.648 OA
BRANCH  14  16
ATOM     16  O61 IDU d1623      63.416  43.516  40.231  0.00  0.00    -0.774 OA
ENDBRANCH  14  16
ENDBRANCH  10  14
BRANCH  12  18
ATOM     18  O3  IDU d1623      60.154  42.701  36.250  0.00  0.00    -0.393 OA
ATOM     19  H   IDU d1623      60.198  41.977  36.894  0.00  0.00     0.210 HD
ENDBRANCH  12  18
BRANCH  13  20
ATOM     20  O2  IDU d1623      63.626  42.129  35.354  0.00  0.00    -0.244 OA
BRANCH  20  21
ATOM     21  S   IDU d1623      64.126  41.910  33.710  0.00  0.00     0.252 S 
ATOM     22  O3S IDU d1623      63.646  42.964  32.897  0.00  0.00    -0.572 OA
ATOM     23  O1S IDU d1623      63.662  40.617  33.307  0.00  0.00    -0.572 OA
ATOM     24  O2S IDU d1623      65.576  41.950  33.601  0.00  0.00    -0.572 OA
ENDBRANCH  20  21
ENDBRANCH  13  20
ENDBRANCH   7   8
ENDBRANCH   4   7
BRANCH   3  25
ATOM     25  C6  SGN d5702      65.503  38.301  36.710  0.00  0.00     0.227 C 
BRANCH  25  26
ATOM     26  O6  SGN d5702      66.358  38.607  37.801  0.00  0.00    -0.254 OA
BRANCH  26  27
ATOM     27  S2  SGN d5702      66.942  40.228  37.968  0.00  0.00     0.251 S 
ATOM     28  O4S SGN d5702      66.791  40.699  39.307  0.00  0.00    -0.572 OA
ATOM     29  O5S SGN d5702      66.193  41.074  37.083  0.00  0.00    -0.572 OA
ATOM     30  O6S SGN d5702      68.336  40.162  37.642  0.00  0.00    -0.572 OA
ENDBRANCH  26  27
ENDBRANCH  25  26
ENDBRANCH   3  25
BRANCH   5  31
ATOM     31  O3  SGN d5702      61.401  39.231  39.298  0.00  0.00    -0.391 OA
ATOM     32  H   SGN d5702      60.631  38.813  39.716  0.00  0.00     0.210 HD
ENDBRANCH   5  31
BRANCH   2  33
ATOM     33  N   SGN d5702      61.739  36.724  40.499  0.00  0.00    -0.189 NA
ATOM     34  H   SGN d5702      61.925  35.721  40.525  0.00  0.00     0.143 HD
BRANCH  33  35
ATOM     35  S1  SGN d5702      61.626  37.326  42.156  0.00  0.00     0.183 S 
ATOM     36  O1S SGN d5702      61.071  36.278  42.989  0.00  0.00    -0.582 OA
ATOM     37  O2S SGN d5702      60.716  38.425  42.184  0.00  0.00    -0.582 OA
ATOM     38  O3S SGN d5702      62.979  37.704  42.515  0.00  0.00    -0.582 OA
ENDBRANCH  33  35
ENDBRANCH   2  33
BRANCH   6  39
ATOM     39  O1  SGN d5702      62.904  35.382  38.360  0.00  0.00    -0.369 OA
ATOM     40  H   SGN d5702      61.967  35.633  38.378  0.00  0.00     0.212 HD
ENDBRANCH   6  39
TORSDOF 14
ENDMDL
