MODEL 1
REMARK VINA RESULT:      -3.7      0.000      0.000
REMARK  8 active torsions:
REMARK  status: ('A' for Active; 'I' for Inactive)
REMARK    1  A    between atoms: C6_1  and  C5_27 
REMARK    2  A    between atoms: C6_4  and  C5_23 
REMARK    3  A    between atoms: C1_7  and  O1_9 
REMARK    4  A    between atoms: O1_9  and  C4_31 
REMARK    5  A    between atoms: S_13  and  O2_22 
REMARK    6  A    between atoms: N_19  and  C2_25 
REMARK    7  A    between atoms: N_19  and  S1_28 
REMARK    8  A    between atoms: C2_20  and  O2_22 
ROOT
ATOM      1  O4  SGN d   1     -38.579  26.871 -30.959  0.00  0.00    -0.326 OA
ENDROOT
BRANCH   1   2
ATOM      2  C1  IDS d   2     -38.516  28.217 -31.451  0.00  0.00     0.268 C 
ATOM      3  C2  IDS d   2     -37.254  28.878 -30.920  0.00  0.00     0.224 C 
ATOM      4  C3  IDS d   2     -36.944  30.110 -31.754  0.00  0.00     0.189 C 
ATOM      5  C4  IDS d   2     -36.597  29.658 -33.163  0.00  0.00     0.077 C 
ATOM      6  O3  IDS d   2     -35.821  30.801 -31.185  0.00  0.00    -0.221 OA
ATOM      7  C5  IDS d   2     -37.195  28.282 -33.408  0.00  0.00     0.207 C 
ATOM      8  O5  IDS d   2     -38.532  28.247 -32.888  0.00  0.00    -0.320 OA
ATOM      9  O2  IDS d   2     -37.435  29.224 -29.538  0.00  0.00    -0.233 OA
ATOM     10  S   IDS d   2     -37.017  28.312 -28.512  0.00  0.00     0.252 S 
ATOM     11  O3S IDS d   2     -35.570  27.885 -28.769  0.00  0.00    -0.572 OA
ATOM     12  O1S IDS d   2     -37.112  29.001 -27.150  0.00  0.00    -0.572 OA
ATOM     13  O2S IDS d   2     -37.922  27.079 -28.523  0.00  0.00    -0.572 OA
ATOM     14  C6  IDS d   2     -37.227  28.006 -34.912  0.00  0.00     0.214 C 
ATOM     15  O61 IDS d   2     -38.231  28.407 -35.538  0.00  0.00    -0.646 OA
ATOM     16  O62 IDS d   2     -36.235  27.424 -35.405  0.00  0.00    -0.646 OA
ENDBRANCH 1 2
BRANCH   1  17
ATOM     17  C4  SGN d   1     -39.661  26.150 -31.566  0.00  0.00     0.180 C 
ATOM     18  C3  SGN d   1     -39.170  24.771 -31.976  0.00  0.00     0.210 C 
ATOM     19  O3  SGN d   1     -38.192  24.907 -33.018  0.00  0.00    -0.218 OA
ATOM     20  C2  SGN d   1     -40.335  23.936 -32.482  0.00  0.00     0.210 C 
ATOM     21  C1  SGN d   1     -41.424  23.905 -31.422  0.00  0.00     0.295 C 
ATOM     22  O1  SGN d   1     -40.908  23.314 -30.219  0.00  0.00    -0.188 OA
ATOM     23  O5  SGN d   1     -41.867  25.243 -31.150  0.00  0.00    -0.325 OA
ATOM     24  C5  SGN d   1     -40.799  26.007 -30.569  0.00  0.00     0.181 C 
ATOM     25  N   SGN d   1     -39.880  22.578 -32.818  0.00  0.00    -0.162 NA
ATOM     26  S1  SGN d   1     -41.157  21.588 -33.037  0.00  0.00     0.227 S 
ATOM     27  O2S SGN d   1     -41.711  21.148 -31.680  0.00  0.00    -0.577 OA
ATOM     28  O3S SGN d   1     -42.240  22.329 -33.824  0.00  0.00    -0.577 OA
ATOM     29  O1S SGN d   1     -40.714  20.355 -33.827  0.00  0.00    -0.577 OA
ATOM     30  C6  SGN d   1     -41.318  27.381 -30.178  0.00  0.00     0.214 C 
ATOM     31  O6  SGN d   1     -42.389  27.241 -29.240  0.00  0.00    -0.218 OA
ENDBRANCH   1  17
TORSDOF 8
ENDMDL
MODEL 2
REMARK VINA RESULT:      -3.7      3.052      5.461
REMARK  8 active torsions:
REMARK  status: ('A' for Active; 'I' for Inactive)
REMARK    1  A    between atoms: C6_1  and  C5_27 
REMARK    2  A    between atoms: C6_4  and  C5_23 
REMARK    3  A    between atoms: C1_7  and  O1_9 
REMARK    4  A    between atoms: O1_9  and  C4_31 
REMARK    5  A    between atoms: S_13  and  O2_22 
REMARK    6  A    between atoms: N_19  and  C2_25 
REMARK    7  A    between atoms: N_19  and  S1_28 
REMARK    8  A    between atoms: C2_20  and  O2_22 
ROOT
ATOM      1  O4  SGN d   1     -39.031  29.361 -30.265  0.00  0.00    -0.326 OA
ENDROOT
BRANCH   1   2
ATOM      2  C1  IDS d   2     -38.161  29.990 -29.314  0.00  0.00     0.268 C 
ATOM      3  C2  IDS d   2     -38.948  31.036 -28.541  0.00  0.00     0.224 C 
ATOM      4  C3  IDS d   2     -38.196  31.391 -27.270  0.00  0.00     0.189 C 
ATOM      5  C4  IDS d   2     -38.170  30.166 -26.372  0.00  0.00     0.077 C 
ATOM      6  O3  IDS d   2     -38.876  32.461 -26.596  0.00  0.00    -0.221 OA
ATOM      7  C5  IDS d   2     -38.377  28.920 -27.220  0.00  0.00     0.207 C 
ATOM      8  O5  IDS d   2     -37.590  29.024 -28.414  0.00  0.00    -0.320 OA
ATOM      9  O2  IDS d   2     -39.146  32.196 -29.363  0.00  0.00    -0.233 OA
ATOM     10  S   IDS d   2     -40.342  32.323 -30.146  0.00  0.00     0.252 S 
ATOM     11  O3S IDS d   2     -41.562  32.090 -29.251  0.00  0.00    -0.572 OA
ATOM     12  O1S IDS d   2     -40.411  33.728 -30.747  0.00  0.00    -0.572 OA
ATOM     13  O2S IDS d   2     -40.330  31.288 -31.271  0.00  0.00    -0.572 OA
ATOM     14  C6  IDS d   2     -37.935  27.690 -26.425  0.00  0.00     0.214 C 
ATOM     15  O61 IDS d   2     -36.728  27.375 -26.497  0.00  0.00    -0.646 OA
ATOM     16  O62 IDS d   2     -38.808  27.108 -25.744  0.00  0.00    -0.646 OA
ENDBRANCH 1 2
BRANCH   1  17
ATOM     17  C4  SGN d   1     -38.386  28.246 -30.898  0.00  0.00     0.180 C 
ATOM     18  C3  SGN d   1     -39.405  27.139 -31.111  0.00  0.00     0.210 C 
ATOM     19  O3  SGN d   1     -39.833  26.637 -29.835  0.00  0.00    -0.218 OA
ATOM     20  C2  SGN d   1     -38.781  26.010 -31.915  0.00  0.00     0.210 C 
ATOM     21  C1  SGN d   1     -38.213  26.571 -33.207  0.00  0.00     0.295 C 
ATOM     22  O1  SGN d   1     -39.267  27.170 -33.976  0.00  0.00    -0.188 OA
ATOM     23  O5  SGN d   1     -37.217  27.560 -32.905  0.00  0.00    -0.325 OA
ATOM     24  C5  SGN d   1     -37.821  28.681 -32.241  0.00  0.00     0.181 C 
ATOM     25  N   SGN d   1     -39.779  24.963 -32.182  0.00  0.00    -0.162 NA
ATOM     26  S1  SGN d   1     -39.226  23.924 -33.311  0.00  0.00     0.227 S 
ATOM     27  O2S SGN d   1     -39.387  24.538 -34.704  0.00  0.00    -0.577 OA
ATOM     28  O3S SGN d   1     -37.750  23.626 -33.042  0.00  0.00    -0.577 OA
ATOM     29  O1S SGN d   1     -40.026  22.622 -33.237  0.00  0.00    -0.577 OA
ATOM     30  C6  SGN d   1     -36.778  29.766 -32.035  0.00  0.00     0.214 C 
ATOM     31  O6  SGN d   1     -36.250  30.171 -33.301  0.00  0.00    -0.218 OA
ENDBRANCH   1  17
TORSDOF 8
ENDMDL
MODEL 3
REMARK VINA RESULT:      -3.6      2.933      7.390
REMARK  8 active torsions:
REMARK  status: ('A' for Active; 'I' for Inactive)
REMARK    1  A    between atoms: C6_1  and  C5_27 
REMARK    2  A    between atoms: C6_4  and  C5_23 
REMARK    3  A    between atoms: C1_7  and  O1_9 
REMARK    4  A    between atoms: O1_9  and  C4_31 
REMARK    5  A    between atoms: S_13  and  O2_22 
REMARK    6  A    between atoms: N_19  and  C2_25 
REMARK    7  A    between atoms: N_19  and  S1_28 
REMARK    8  A    between atoms: C2_20  and  O2_22 
ROOT
ATOM      1  O4  SGN d   1     -40.060  27.171 -33.678  0.00  0.00    -0.326 OA
ENDROOT
BRANCH   1   2
ATOM      2  C1  IDS d   2     -41.100  26.211 -33.442  0.00  0.00     0.268 C 
ATOM      3  C2  IDS d   2     -41.437  25.517 -34.752  0.00  0.00     0.224 C 
ATOM      4  C3  IDS d   2     -42.191  24.231 -34.458  0.00  0.00     0.189 C 
ATOM      5  C4  IDS d   2     -41.252  23.282 -33.731  0.00  0.00     0.077 C 
ATOM      6  O3  IDS d   2     -42.611  23.631 -35.693  0.00  0.00    -0.221 OA
ATOM      7  C5  IDS d   2     -40.141  24.085 -33.073  0.00  0.00     0.207 C 
ATOM      8  O5  IDS d   2     -40.703  25.249 -32.450  0.00  0.00    -0.320 OA
ATOM      9  O2  IDS d   2     -42.218  26.394 -35.577  0.00  0.00    -0.233 OA
ATOM     10  S   IDS d   2     -41.570  27.231 -36.546  0.00  0.00     0.252 S 
ATOM     11  O3S IDS d   2     -40.636  26.380 -37.409  0.00  0.00    -0.572 OA
ATOM     12  O1S IDS d   2     -42.625  27.893 -37.434  0.00  0.00    -0.572 OA
ATOM     13  O2S IDS d   2     -40.758  28.311 -35.829  0.00  0.00    -0.572 OA
ATOM     14  C6  IDS d   2     -39.456  23.222 -32.011  0.00  0.00     0.214 C 
ATOM     15  O61 IDS d   2     -39.958  23.230 -30.868  0.00  0.00    -0.646 OA
ATOM     16  O62 IDS d   2     -38.462  22.555 -32.375  0.00  0.00    -0.646 OA
ENDBRANCH 1 2
BRANCH   1  17
ATOM     17  C4  SGN d   1     -39.547  27.691 -32.443  0.00  0.00     0.180 C 
ATOM     18  C3  SGN d   1     -38.028  27.650 -32.480  0.00  0.00     0.210 C 
ATOM     19  O3  SGN d   1     -37.592  26.283 -32.510  0.00  0.00    -0.218 OA
ATOM     20  C2  SGN d   1     -37.462  28.335 -31.247  0.00  0.00     0.210 C 
ATOM     21  C1  SGN d   1     -38.032  29.741 -31.150  0.00  0.00     0.295 C 
ATOM     22  O1  SGN d   1     -37.662  30.491 -32.318  0.00  0.00    -0.188 OA
ATOM     23  O5  SGN d   1     -39.462  29.674 -31.055  0.00  0.00    -0.325 OA
ATOM     24  C5  SGN d   1     -40.012  29.128 -32.264  0.00  0.00     0.181 C 
ATOM     25  N   SGN d   1     -35.993  28.359 -31.308  0.00  0.00    -0.162 NA
ATOM     26  S1  SGN d   1     -35.393  29.371 -30.178  0.00  0.00     0.227 S 
ATOM     27  O2S SGN d   1     -35.511  30.818 -30.663  0.00  0.00    -0.577 OA
ATOM     28  O3S SGN d   1     -36.176  29.194 -28.876  0.00  0.00    -0.577 OA
ATOM     29  O1S SGN d   1     -33.920  29.039 -29.930  0.00  0.00    -0.577 OA
ATOM     30  C6  SGN d   1     -41.529  29.174 -32.194  0.00  0.00     0.214 C 
ATOM     31  O6  SGN d   1     -41.960  30.528 -32.026  0.00  0.00    -0.218 OA
ENDBRANCH   1  17
TORSDOF 8
ENDMDL
MODEL 4
REMARK VINA RESULT:      -3.5      3.616      7.597
REMARK  8 active torsions:
REMARK  status: ('A' for Active; 'I' for Inactive)
REMARK    1  A    between atoms: C6_1  and  C5_27 
REMARK    2  A    between atoms: C6_4  and  C5_23 
REMARK    3  A    between atoms: C1_7  and  O1_9 
REMARK    4  A    between atoms: O1_9  and  C4_31 
REMARK    5  A    between atoms: S_13  and  O2_22 
REMARK    6  A    between atoms: N_19  and  C2_25 
REMARK    7  A    between atoms: N_19  and  S1_28 
REMARK    8  A    between atoms: C2_20  and  O2_22 
ROOT
ATOM      1  O4  SGN d   1     -37.623  29.033 -30.712  0.00  0.00    -0.326 OA
ENDROOT
BRANCH   1   2
ATOM      2  C1  IDS d   2     -38.007  27.757 -31.242  0.00  0.00     0.268 C 
ATOM      3  C2  IDS d   2     -39.469  27.815 -31.657  0.00  0.00     0.224 C 
ATOM      4  C3  IDS d   2     -39.769  26.661 -32.598  0.00  0.00     0.189 C 
ATOM      5  C4  IDS d   2     -38.979  26.872 -33.880  0.00  0.00     0.077 C 
ATOM      6  O3  IDS d   2     -41.172  26.645 -32.902  0.00  0.00    -0.221 OA
ATOM      7  C5  IDS d   2     -37.796  27.783 -33.593  0.00  0.00     0.207 C 
ATOM      8  O5  IDS d   2     -37.182  27.388 -32.359  0.00  0.00    -0.320 OA
ATOM      9  O2  IDS d   2     -40.305  27.759 -30.492  0.00  0.00    -0.233 OA
ATOM     10  S   IDS d   2     -40.754  28.975 -29.874  0.00  0.00     0.252 S 
ATOM     11  O3S IDS d   2     -41.379  29.883 -30.935  0.00  0.00    -0.572 OA
ATOM     12  O1S IDS d   2     -41.796  28.647 -28.804  0.00  0.00    -0.572 OA
ATOM     13  O2S IDS d   2     -39.566  29.688 -29.226  0.00  0.00    -0.572 OA
ATOM     14  C6  IDS d   2     -36.779  27.661 -34.730  0.00  0.00     0.214 C 
ATOM     15  O61 IDS d   2     -35.930  26.750 -34.632  0.00  0.00    -0.646 OA
ATOM     16  O62 IDS d   2     -36.890  28.465 -35.682  0.00  0.00    -0.646 OA
ENDBRANCH 1 2
BRANCH   1  17
ATOM     17  C4  SGN d   1     -36.237  29.040 -30.338  0.00  0.00     0.180 C 
ATOM     18  C3  SGN d   1     -35.609  30.349 -30.790  0.00  0.00     0.210 C 
ATOM     19  O3  SGN d   1     -35.601  30.399 -32.224  0.00  0.00    -0.218 OA
ATOM     20  C2  SGN d   1     -34.183  30.444 -30.272  0.00  0.00     0.210 C 
ATOM     21  C1  SGN d   1     -34.186  30.258 -28.764  0.00  0.00     0.295 C 
ATOM     22  O1  SGN d   1     -34.978  31.289 -28.154  0.00  0.00    -0.188 OA
ATOM     23  O5  SGN d   1     -34.736  28.973 -28.439  0.00  0.00    -0.325 OA
ATOM     24  C5  SGN d   1     -36.118  28.915 -28.827  0.00  0.00     0.181 C 
ATOM     25  N   SGN d   1     -33.590  31.736 -30.648  0.00  0.00    -0.162 NA
ATOM     26  S1  SGN d   1     -32.204  31.987 -29.826  0.00  0.00     0.227 S 
ATOM     27  O2S SGN d   1     -32.522  32.462 -28.407  0.00  0.00    -0.577 OA
ATOM     28  O3S SGN d   1     -31.407  30.682 -29.771  0.00  0.00    -0.577 OA
ATOM     29  O1S SGN d   1     -31.375  33.054 -30.543  0.00  0.00    -0.577 OA
ATOM     30  C6  SGN d   1     -36.715  27.595 -28.370  0.00  0.00     0.214 C 
ATOM     31  O6  SGN d   1     -36.599  27.482 -26.949  0.00  0.00    -0.218 OA
ENDBRANCH   1  17
TORSDOF 8
ENDMDL
MODEL 5
REMARK VINA RESULT:      -3.5      2.395      4.804
REMARK  8 active torsions:
REMARK  status: ('A' for Active; 'I' for Inactive)
REMARK    1  A    between atoms: C6_1  and  C5_27 
REMARK    2  A    between atoms: C6_4  and  C5_23 
REMARK    3  A    between atoms: C1_7  and  O1_9 
REMARK    4  A    between atoms: O1_9  and  C4_31 
REMARK    5  A    between atoms: S_13  and  O2_22 
REMARK    6  A    between atoms: N_19  and  C2_25 
REMARK    7  A    between atoms: N_19  and  S1_28 
REMARK    8  A    between atoms: C2_20  and  O2_22 
ROOT
ATOM      1  O4  SGN d   1     -39.365  27.887 -31.319  0.00  0.00    -0.326 OA
ENDROOT
BRANCH   1   2
ATOM      2  C1  IDS d   2     -38.436  28.593 -30.485  0.00  0.00     0.268 C 
ATOM      3  C2  IDS d   2     -38.929  30.018 -30.294  0.00  0.00     0.224 C 
ATOM      4  C3  IDS d   2     -38.226  30.635 -29.097  0.00  0.00     0.189 C 
ATOM      5  C4  IDS d   2     -38.665  29.888 -27.848  0.00  0.00     0.077 C 
ATOM      6  O3  IDS d   2     -38.602  32.016 -28.982  0.00  0.00    -0.221 OA
ATOM      7  C5  IDS d   2     -39.167  28.508 -28.242  0.00  0.00     0.207 C 
ATOM      8  O5  IDS d   2     -38.279  27.940 -29.214  0.00  0.00    -0.320 OA
ATOM      9  O2  IDS d   2     -38.680  30.780 -31.485  0.00  0.00    -0.233 OA
ATOM     10  S   IDS d   2     -39.700  30.891 -32.489  0.00  0.00     0.252 S 
ATOM     11  O3S IDS d   2     -41.010  31.338 -31.835  0.00  0.00    -0.572 OA
ATOM     12  O1S IDS d   2     -39.273  31.923 -33.535  0.00  0.00    -0.572 OA
ATOM     13  O2S IDS d   2     -39.904  29.535 -33.165  0.00  0.00    -0.572 OA
ATOM     14  C6  IDS d   2     -39.204  27.612 -27.002  0.00  0.00     0.214 C 
ATOM     15  O61 IDS d   2     -38.153  27.001 -26.716  0.00  0.00    -0.646 OA
ATOM     16  O62 IDS d   2     -40.274  27.579 -26.355  0.00  0.00    -0.646 OA
ENDBRANCH 1 2
BRANCH   1  17
ATOM     17  C4  SGN d   1     -38.988  26.510 -31.462  0.00  0.00     0.180 C 
ATOM     18  C3  SGN d   1     -40.241  25.648 -31.441  0.00  0.00     0.210 C 
ATOM     19  O3  SGN d   1     -40.849  25.728 -30.144  0.00  0.00    -0.218 OA
ATOM     20  C2  SGN d   1     -39.879  24.203 -31.743  0.00  0.00     0.210 C 
ATOM     21  C1  SGN d   1     -39.119  24.141 -33.057  0.00  0.00     0.295 C 
ATOM     22  O1  SGN d   1     -39.945  24.651 -34.115  0.00  0.00    -0.188 OA
ATOM     23  O5  SGN d   1     -37.924  24.931 -32.958  0.00  0.00    -0.325 OA
ATOM     24  C5  SGN d   1     -38.260  26.316 -32.783  0.00  0.00     0.181 C 
ATOM     25  N   SGN d   1     -41.093  23.374 -31.790  0.00  0.00    -0.162 NA
ATOM     26  S1  SGN d   1     -40.760  21.913 -32.434  0.00  0.00     0.227 S 
ATOM     27  O2S SGN d   1     -40.685  22.024 -33.959  0.00  0.00    -0.577 OA
ATOM     28  O3S SGN d   1     -39.423  21.413 -31.884  0.00  0.00    -0.577 OA
ATOM     29  O1S SGN d   1     -41.864  20.926 -32.053  0.00  0.00    -0.577 OA
ATOM     30  C6  SGN d   1     -36.990  27.149 -32.799  0.00  0.00     0.214 C 
ATOM     31  O6  SGN d   1     -36.310  26.963 -34.043  0.00  0.00    -0.218 OA
ENDBRANCH   1  17
TORSDOF 8
ENDMDL
MODEL 6
REMARK VINA RESULT:      -3.3      2.724      7.818
REMARK  8 active torsions:
REMARK  status: ('A' for Active; 'I' for Inactive)
REMARK    1  A    between atoms: C6_1  and  C5_27 
REMARK    2  A    between atoms: C6_4  and  C5_23 
REMARK    3  A    between atoms: C1_7  and  O1_9 
REMARK    4  A    between atoms: O1_9  and  C4_31 
REMARK    5  A    between atoms: S_13  and  O2_22 
REMARK    6  A    between atoms: N_19  and  C2_25 
REMARK    7  A    between atoms: N_19  and  S1_28 
REMARK    8  A    between atoms: C2_20  and  O2_22 
ROOT
ATOM      1  O4  SGN d   1     -38.478  27.364 -31.051  0.00  0.00    -0.326 OA
ENDROOT
BRANCH   1   2
ATOM      2  C1  IDS d   2     -39.706  27.423 -31.791  0.00  0.00     0.268 C 
ATOM      3  C2  IDS d   2     -40.282  26.020 -31.902  0.00  0.00     0.224 C 
ATOM      4  C3  IDS d   2     -41.751  26.111 -32.279  0.00  0.00     0.189 C 
ATOM      5  C4  IDS d   2     -42.501  26.761 -31.128  0.00  0.00     0.077 C 
ATOM      6  O3  IDS d   2     -42.269  24.790 -32.498  0.00  0.00    -0.221 OA
ATOM      7  C5  IDS d   2     -41.524  27.574 -30.292  0.00  0.00     0.207 C 
ATOM      8  O5  IDS d   2     -40.650  28.306 -31.162  0.00  0.00    -0.320 OA
ATOM      9  O2  IDS d   2     -39.545  25.271 -32.880  0.00  0.00    -0.233 OA
ATOM     10  S   IDS d   2     -38.441  24.451 -32.470  0.00  0.00     0.252 S 
ATOM     11  O3S IDS d   2     -38.885  23.538 -31.324  0.00  0.00    -0.572 OA
ATOM     12  O1S IDS d   2     -37.975  23.597 -33.651  0.00  0.00    -0.572 OA
ATOM     13  O2S IDS d   2     -37.289  25.339 -31.998  0.00  0.00    -0.572 OA
ATOM     14  C6  IDS d   2     -42.306  28.553 -29.414  0.00  0.00     0.214 C 
ATOM     15  O61 IDS d   2     -42.588  29.660 -29.918  0.00  0.00    -0.646 OA
ATOM     16  O62 IDS d   2     -42.625  28.162 -28.270  0.00  0.00    -0.646 OA
ENDBRANCH 1 2
BRANCH   1  17
ATOM     17  C4  SGN d   1     -37.818  28.638 -31.044  0.00  0.00     0.180 C 
ATOM     18  C3  SGN d   1     -37.090  28.813 -29.721  0.00  0.00     0.210 C 
ATOM     19  O3  SGN d   1     -38.052  28.895 -28.659  0.00  0.00    -0.218 OA
ATOM     20  C2  SGN d   1     -36.260  30.086 -29.751  0.00  0.00     0.210 C 
ATOM     21  C1  SGN d   1     -35.334  30.050 -30.956  0.00  0.00     0.295 C 
ATOM     22  O1  SGN d   1     -34.457  28.918 -30.854  0.00  0.00    -0.188 OA
ATOM     23  O5  SGN d   1     -36.113  29.949 -32.158  0.00  0.00    -0.325 OA
ATOM     24  C5  SGN d   1     -36.815  28.697 -32.186  0.00  0.00     0.181 C 
ATOM     25  N   SGN d   1     -35.501  30.229 -28.500  0.00  0.00    -0.162 NA
ATOM     26  S1  SGN d   1     -34.368  31.392 -28.651  0.00  0.00     0.227 S 
ATOM     27  O2S SGN d   1     -33.158  30.842 -29.410  0.00  0.00    -0.577 OA
ATOM     28  O3S SGN d   1     -34.962  32.579 -29.412  0.00  0.00    -0.577 OA
ATOM     29  O1S SGN d   1     -33.926  31.854 -27.261  0.00  0.00    -0.577 OA
ATOM     30  C6  SGN d   1     -37.538  28.555 -33.515  0.00  0.00     0.214 C 
ATOM     31  O6  SGN d   1     -36.591  28.611 -34.585  0.00  0.00    -0.218 OA
ENDBRANCH   1  17
TORSDOF 8
ENDMDL
MODEL 7
REMARK VINA RESULT:      -3.3      3.398      6.813
REMARK  8 active torsions:
REMARK  status: ('A' for Active; 'I' for Inactive)
REMARK    1  A    between atoms: C6_1  and  C5_27 
REMARK    2  A    between atoms: C6_4  and  C5_23 
REMARK    3  A    between atoms: C1_7  and  O1_9 
REMARK    4  A    between atoms: O1_9  and  C4_31 
REMARK    5  A    between atoms: S_13  and  O2_22 
REMARK    6  A    between atoms: N_19  and  C2_25 
REMARK    7  A    between atoms: N_19  and  S1_28 
REMARK    8  A    between atoms: C2_20  and  O2_22 
ROOT
ATOM      1  O4  SGN d   1     -37.931  27.974 -30.792  0.00  0.00    -0.326 OA
ENDROOT
BRANCH   1   2
ATOM      2  C1  IDS d   2     -39.187  27.458 -31.253  0.00  0.00     0.268 C 
ATOM      3  C2  IDS d   2     -39.406  27.904 -32.690  0.00  0.00     0.224 C 
ATOM      4  C3  IDS d   2     -40.476  27.034 -33.327  0.00  0.00     0.189 C 
ATOM      5  C4  IDS d   2     -39.942  25.614 -33.426  0.00  0.00     0.077 C 
ATOM      6  O3  IDS d   2     -40.767  27.525 -34.645  0.00  0.00    -0.221 OA
ATOM      7  C5  IDS d   2     -38.832  25.427 -32.403  0.00  0.00     0.207 C 
ATOM      8  O5  IDS d   2     -39.226  26.024 -31.160  0.00  0.00    -0.320 OA
ATOM      9  O2  IDS d   2     -39.786  29.288 -32.714  0.00  0.00    -0.233 OA
ATOM     10  S   IDS d   2     -38.784  30.302 -32.878  0.00  0.00     0.252 S 
ATOM     11  O3S IDS d   2     -37.916  29.968 -34.094  0.00  0.00    -0.572 OA
ATOM     12  O1S IDS d   2     -39.462  31.657 -33.092  0.00  0.00    -0.572 OA
ATOM     13  O2S IDS d   2     -37.908  30.364 -31.627  0.00  0.00    -0.572 OA
ATOM     14  C6  IDS d   2     -38.587  23.931 -32.194  0.00  0.00     0.214 C 
ATOM     15  O61 IDS d   2     -39.291  23.359 -31.336  0.00  0.00    -0.646 OA
ATOM     16  O62 IDS d   2     -37.719  23.390 -32.915  0.00  0.00    -0.646 OA
ENDBRANCH 1 2
BRANCH   1  17
ATOM     17  C4  SGN d   1     -37.838  27.904 -29.361  0.00  0.00     0.180 C 
ATOM     18  C3  SGN d   1     -36.388  27.673 -28.969  0.00  0.00     0.210 C 
ATOM     19  O3  SGN d   1     -35.974  26.377 -29.425  0.00  0.00    -0.218 OA
ATOM     20  C2  SGN d   1     -36.242  27.748 -27.458  0.00  0.00     0.210 C 
ATOM     21  C1  SGN d   1     -36.803  29.072 -26.966  0.00  0.00     0.295 C 
ATOM     22  O1  SGN d   1     -36.073  30.155 -27.564  0.00  0.00    -0.188 OA
ATOM     23  O5  SGN d   1     -38.189  29.170 -27.327  0.00  0.00    -0.325 OA
ATOM     24  C5  SGN d   1     -38.326  29.211 -28.756  0.00  0.00     0.181 C 
ATOM     25  N   SGN d   1     -34.832  27.592 -27.073  0.00  0.00    -0.162 NA
ATOM     26  S1  SGN d   1     -34.619  28.000 -25.509  0.00  0.00     0.227 S 
ATOM     27  O2S SGN d   1     -34.565  29.523 -25.373  0.00  0.00    -0.577 OA
ATOM     28  O3S SGN d   1     -35.780  27.445 -24.681  0.00  0.00    -0.577 OA
ATOM     29  O1S SGN d   1     -33.306  27.400 -25.002  0.00  0.00    -0.577 OA
ATOM     30  C6  SGN d   1     -39.784  29.434 -29.117  0.00  0.00     0.214 C 
ATOM     31  O6  SGN d   1     -40.238  30.664 -28.545  0.00  0.00    -0.218 OA
ENDBRANCH   1  17
TORSDOF 8
ENDMDL
MODEL 8
REMARK VINA RESULT:      -3.2      2.897      7.918
REMARK  8 active torsions:
REMARK  status: ('A' for Active; 'I' for Inactive)
REMARK    1  A    between atoms: C6_1  and  C5_27 
REMARK    2  A    between atoms: C6_4  and  C5_23 
REMARK    3  A    between atoms: C1_7  and  O1_9 
REMARK    4  A    between atoms: O1_9  and  C4_31 
REMARK    5  A    between atoms: S_13  and  O2_22 
REMARK    6  A    between atoms: N_19  and  C2_25 
REMARK    7  A    between atoms: N_19  and  S1_28 
REMARK    8  A    between atoms: C2_20  and  O2_22 
ROOT
ATOM      1  O4  SGN d   1     -37.940  27.273 -30.848  0.00  0.00    -0.326 OA
ENDROOT
BRANCH   1   2
ATOM      2  C1  IDS d   2     -39.352  27.359 -31.083  0.00  0.00     0.268 C 
ATOM      3  C2  IDS d   2     -39.853  26.010 -31.576  0.00  0.00     0.224 C 
ATOM      4  C3  IDS d   2     -41.362  25.946 -31.412  0.00  0.00     0.189 C 
ATOM      5  C4  IDS d   2     -41.683  25.974 -29.927  0.00  0.00     0.077 C 
ATOM      6  O3  IDS d   2     -41.852  24.722 -31.982  0.00  0.00    -0.221 OA
ATOM      7  C5  IDS d   2     -40.517  26.598 -29.176  0.00  0.00     0.207 C 
ATOM      8  O5  IDS d   2     -40.054  27.751 -29.892  0.00  0.00    -0.320 OA
ATOM      9  O2  IDS d   2     -39.476  25.827 -32.949  0.00  0.00    -0.233 OA
ATOM     10  S   IDS d   2     -38.256  25.143 -33.271  0.00  0.00     0.252 S 
ATOM     11  O3S IDS d   2     -38.208  23.809 -32.523  0.00  0.00    -0.572 OA
ATOM     12  O1S IDS d   2     -38.198  24.887 -34.778  0.00  0.00    -0.572 OA
ATOM     13  O2S IDS d   2     -37.061  26.004 -32.856  0.00  0.00    -0.572 OA
ATOM     14  C6  IDS d   2     -40.984  27.019 -27.781  0.00  0.00     0.214 C 
ATOM     15  O61 IDS d   2     -41.488  28.157 -27.674  0.00  0.00    -0.646 OA
ATOM     16  O62 IDS d   2     -40.849  26.184 -26.859  0.00  0.00    -0.646 OA
ENDBRANCH 1 2
BRANCH   1  17
ATOM     17  C4  SGN d   1     -37.455  28.448 -30.182  0.00  0.00     0.180 C 
ATOM     18  C3  SGN d   1     -36.418  28.040 -29.148  0.00  0.00     0.210 C 
ATOM     19  O3  SGN d   1     -37.056  27.272 -28.116  0.00  0.00    -0.218 OA
ATOM     20  C2  SGN d   1     -35.782  29.278 -28.537  0.00  0.00     0.210 C 
ATOM     21  C1  SGN d   1     -35.223  30.152 -29.648  0.00  0.00     0.295 C 
ATOM     22  O1  SGN d   1     -34.226  29.422 -30.379  0.00  0.00    -0.188 OA
ATOM     23  O5  SGN d   1     -36.284  30.538 -30.534  0.00  0.00    -0.325 OA
ATOM     24  C5  SGN d   1     -36.817  29.382 -31.198  0.00  0.00     0.181 C 
ATOM     25  N   SGN d   1     -34.731  28.892 -27.583  0.00  0.00    -0.162 NA
ATOM     26  S1  SGN d   1     -33.825  30.187 -27.179  0.00  0.00     0.227 S 
ATOM     27  O2S SGN d   1     -32.814  30.479 -28.291  0.00  0.00    -0.577 OA
ATOM     28  O3S SGN d   1     -34.739  31.398 -26.977  0.00  0.00    -0.577 OA
ATOM     29  O1S SGN d   1     -33.076  29.897 -25.878  0.00  0.00    -0.577 OA
ATOM     30  C6  SGN d   1     -37.855  29.820 -32.218  0.00  0.00     0.214 C 
ATOM     31  O6  SGN d   1     -37.250  30.699 -33.171  0.00  0.00    -0.218 OA
ENDBRANCH   1  17
TORSDOF 8
ENDMDL
MODEL 9
REMARK VINA RESULT:      -3.2      3.100      6.957
REMARK  8 active torsions:
REMARK  status: ('A' for Active; 'I' for Inactive)
REMARK    1  A    between atoms: C6_1  and  C5_27 
REMARK    2  A    between atoms: C6_4  and  C5_23 
REMARK    3  A    between atoms: C1_7  and  O1_9 
REMARK    4  A    between atoms: O1_9  and  C4_31 
REMARK    5  A    between atoms: S_13  and  O2_22 
REMARK    6  A    between atoms: N_19  and  C2_25 
REMARK    7  A    between atoms: N_19  and  S1_28 
REMARK    8  A    between atoms: C2_20  and  O2_22 
ROOT
ATOM      1  O4  SGN d   1     -40.304  25.696 -32.634  0.00  0.00    -0.326 OA
ENDROOT
BRANCH   1   2
ATOM      2  C1  IDS d   2     -39.826  25.289 -33.924  0.00  0.00     0.268 C 
ATOM      3  C2  IDS d   2     -40.613  24.070 -34.379  0.00  0.00     0.224 C 
ATOM      4  C3  IDS d   2     -40.441  23.894 -35.878  0.00  0.00     0.189 C 
ATOM      5  C4  IDS d   2     -41.095  25.076 -36.576  0.00  0.00     0.077 C 
ATOM      6  O3  IDS d   2     -41.086  22.680 -36.293  0.00  0.00    -0.221 OA
ATOM      7  C5  IDS d   2     -41.184  26.243 -35.605  0.00  0.00     0.207 C 
ATOM      8  O5  IDS d   2     -39.949  26.353 -34.883  0.00  0.00    -0.320 OA
ATOM      9  O2  IDS d   2     -40.157  22.908 -33.670  0.00  0.00    -0.233 OA
ATOM     10  S   IDS d   2     -40.820  22.501 -32.464  0.00  0.00     0.252 S 
ATOM     11  O3S IDS d   2     -42.326  22.412 -32.717  0.00  0.00    -0.572 OA
ATOM     12  O1S IDS d   2     -40.293  21.131 -32.032  0.00  0.00    -0.572 OA
ATOM     13  O2S IDS d   2     -40.547  23.522 -31.358  0.00  0.00    -0.572 OA
ATOM     14  C6  IDS d   2     -41.432  27.533 -36.388  0.00  0.00     0.214 C 
ATOM     15  O61 IDS d   2     -40.425  28.137 -36.814  0.00  0.00    -0.646 OA
ATOM     16  O62 IDS d   2     -42.623  27.871 -36.565  0.00  0.00    -0.646 OA
ENDBRANCH 1 2
BRANCH   1  17
ATOM     17  C4  SGN d   1     -39.697  26.930 -32.224  0.00  0.00     0.180 C 
ATOM     18  C3  SGN d   1     -40.775  27.863 -31.698  0.00  0.00     0.210 C 
ATOM     19  O3  SGN d   1     -41.652  28.227 -32.775  0.00  0.00    -0.218 OA
ATOM     20  C2  SGN d   1     -40.138  29.115 -31.119  0.00  0.00     0.210 C 
ATOM     21  C1  SGN d   1     -39.114  28.715 -30.069  0.00  0.00     0.295 C 
ATOM     22  O1  SGN d   1     -39.765  27.987 -29.017  0.00  0.00    -0.188 OA
ATOM     23  O5  SGN d   1     -38.106  27.891 -30.672  0.00  0.00    -0.325 OA
ATOM     24  C5  SGN d   1     -38.682  26.656 -31.125  0.00  0.00     0.181 C 
ATOM     25  N   SGN d   1     -41.170  29.994 -30.548  0.00  0.00    -0.162 NA
ATOM     26  S1  SGN d   1     -40.484  31.161 -29.638  0.00  0.00     0.227 S 
ATOM     27  O2S SGN d   1     -40.103  30.594 -28.269  0.00  0.00    -0.577 OA
ATOM     28  O3S SGN d   1     -39.235  31.686 -30.349  0.00  0.00    -0.577 OA
ATOM     29  O1S SGN d   1     -41.478  32.309 -29.451  0.00  0.00    -0.577 OA
ATOM     30  C6  SGN d   1     -37.583  25.750 -31.651  0.00  0.00     0.214 C 
ATOM     31  O6  SGN d   1     -36.632  25.496 -30.613  0.00  0.00    -0.218 OA
ENDBRANCH   1  17
TORSDOF 8
ENDMDL
MODEL 10
REMARK VINA RESULT:      -3.2      3.790      6.137
REMARK  8 active torsions:
REMARK  status: ('A' for Active; 'I' for Inactive)
REMARK    1  A    between atoms: C6_1  and  C5_27 
REMARK    2  A    between atoms: C6_4  and  C5_23 
REMARK    3  A    between atoms: C1_7  and  O1_9 
REMARK    4  A    between atoms: O1_9  and  C4_31 
REMARK    5  A    between atoms: S_13  and  O2_22 
REMARK    6  A    between atoms: N_19  and  C2_25 
REMARK    7  A    between atoms: N_19  and  S1_28 
REMARK    8  A    between atoms: C2_20  and  O2_22 
ROOT
ATOM      1  O4  SGN d   1     -35.868  29.480 -28.512  0.00  0.00    -0.326 OA
ENDROOT
BRANCH   1   2
ATOM      2  C1  IDS d   2     -36.242  30.500 -27.575  0.00  0.00     0.268 C 
ATOM      3  C2  IDS d   2     -35.315  30.428 -26.372  0.00  0.00     0.224 C 
ATOM      4  C3  IDS d   2     -35.399  31.732 -25.597  0.00  0.00     0.189 C 
ATOM      5  C4  IDS d   2     -34.836  32.843 -26.469  0.00  0.00     0.077 C 
ATOM      6  O3  IDS d   2     -34.615  31.626 -24.398  0.00  0.00    -0.221 OA
ATOM      7  C5  IDS d   2     -34.912  32.420 -27.928  0.00  0.00     0.207 C 
ATOM      8  O5  IDS d   2     -36.183  31.804 -28.177  0.00  0.00    -0.320 OA
ATOM      9  O2  IDS d   2     -35.683  29.314 -25.545  0.00  0.00    -0.233 OA
ATOM     10  S   IDS d   2     -35.039  28.045 -25.727  0.00  0.00     0.252 S 
ATOM     11  O3S IDS d   2     -33.521  28.238 -25.714  0.00  0.00    -0.572 OA
ATOM     12  O1S IDS d   2     -35.443  27.102 -24.592  0.00  0.00    -0.572 OA
ATOM     13  O2S IDS d   2     -35.465  27.441 -27.066  0.00  0.00    -0.572 OA
ATOM     14  C6  IDS d   2     -34.760  33.653 -28.819  0.00  0.00     0.214 C 
ATOM     15  O61 IDS d   2     -35.802  34.287 -29.088  0.00  0.00    -0.646 OA
ATOM     16  O62 IDS d   2     -33.603  33.949 -29.190  0.00  0.00    -0.646 OA
ENDBRANCH 1 2
BRANCH   1  17
ATOM     17  C4  SGN d   1     -36.818  29.390 -29.584  0.00  0.00     0.180 C 
ATOM     18  C3  SGN d   1     -36.071  29.196 -30.893  0.00  0.00     0.210 C 
ATOM     19  O3  SGN d   1     -35.306  30.375 -31.182  0.00  0.00    -0.218 OA
ATOM     20  C2  SGN d   1     -37.060  28.946 -32.020  0.00  0.00     0.210 C 
ATOM     21  C1  SGN d   1     -37.955  27.775 -31.650  0.00  0.00     0.295 C 
ATOM     22  O1  SGN d   1     -37.153  26.599 -31.457  0.00  0.00    -0.188 OA
ATOM     23  O5  SGN d   1     -38.664  28.077 -30.439  0.00  0.00    -0.325 OA
ATOM     24  C5  SGN d   1     -37.742  28.206 -29.346  0.00  0.00     0.181 C 
ATOM     25  N   SGN d   1     -36.343  28.691 -33.279  0.00  0.00    -0.162 NA
ATOM     26  S1  SGN d   1     -37.364  28.099 -34.405  0.00  0.00     0.227 S 
ATOM     27  O2S SGN d   1     -37.605  26.608 -34.154  0.00  0.00    -0.577 OA
ATOM     28  O3S SGN d   1     -38.689  28.859 -34.334  0.00  0.00    -0.577 OA
ATOM     29  O1S SGN d   1     -36.750  28.284 -35.794  0.00  0.00    -0.577 OA
ATOM     30  C6  SGN d   1     -38.516  28.407 -28.055  0.00  0.00     0.214 C 
ATOM     31  O6  SGN d   1     -39.384  27.291 -27.836  0.00  0.00    -0.218 OA
ENDBRANCH   1  17
TORSDOF 8
ENDMDL
MODEL 11
REMARK VINA RESULT:      -3.2      3.003      7.775
REMARK  8 active torsions:
REMARK  status: ('A' for Active; 'I' for Inactive)
REMARK    1  A    between atoms: C6_1  and  C5_27 
REMARK    2  A    between atoms: C6_4  and  C5_23 
REMARK    3  A    between atoms: C1_7  and  O1_9 
REMARK    4  A    between atoms: O1_9  and  C4_31 
REMARK    5  A    between atoms: S_13  and  O2_22 
REMARK    6  A    between atoms: N_19  and  C2_25 
REMARK    7  A    between atoms: N_19  and  S1_28 
REMARK    8  A    between atoms: C2_20  and  O2_22 
ROOT
ATOM      1  O4  SGN d   1     -38.141  27.042 -30.153  0.00  0.00    -0.326 OA
ENDROOT
BRANCH   1   2
ATOM      2  C1  IDS d   2     -39.201  27.434 -31.036  0.00  0.00     0.268 C 
ATOM      3  C2  IDS d   2     -39.910  26.187 -31.539  0.00  0.00     0.224 C 
ATOM      4  C3  IDS d   2     -41.267  26.575 -32.102  0.00  0.00     0.189 C 
ATOM      5  C4  IDS d   2     -42.128  27.092 -30.961  0.00  0.00     0.077 C 
ATOM      6  O3  IDS d   2     -41.891  25.419 -32.682  0.00  0.00    -0.221 OA
ATOM      7  C5  IDS d   2     -41.227  27.562 -29.830  0.00  0.00     0.207 C 
ATOM      8  O5  IDS d   2     -40.131  28.309 -30.376  0.00  0.00    -0.320 OA
ATOM      9  O2  IDS d   2     -39.104  25.542 -32.537  0.00  0.00    -0.233 OA
ATOM     10  S   IDS d   2     -38.197  24.497 -32.159  0.00  0.00     0.252 S 
ATOM     11  O3S IDS d   2     -38.943  23.455 -31.322  0.00  0.00    -0.572 OA
ATOM     12  O1S IDS d   2     -37.632  23.833 -33.416  0.00  0.00    -0.572 OA
ATOM     13  O2S IDS d   2     -37.051  25.086 -31.336  0.00  0.00    -0.572 OA
ATOM     14  C6  IDS d   2     -42.030  28.457 -28.884  0.00  0.00     0.214 C 
ATOM     15  O61 IDS d   2     -42.085  29.672 -29.167  0.00  0.00    -0.646 OA
ATOM     16  O62 IDS d   2     -42.593  27.900 -27.915  0.00  0.00    -0.646 OA
ENDBRANCH 1 2
BRANCH   1  17
ATOM     17  C4  SGN d   1     -37.577  28.181 -29.485  0.00  0.00     0.180 C 
ATOM     18  C3  SGN d   1     -37.238  27.799 -28.054  0.00  0.00     0.210 C 
ATOM     19  O3  SGN d   1     -38.450  27.519 -27.338  0.00  0.00    -0.218 OA
ATOM     20  C2  SGN d   1     -36.501  28.941 -27.374  0.00  0.00     0.210 C 
ATOM     21  C1  SGN d   1     -35.288  29.320 -28.208  0.00  0.00     0.295 C 
ATOM     22  O1  SGN d   1     -34.408  28.190 -28.317  0.00  0.00    -0.188 OA
ATOM     23  O5  SGN d   1     -35.713  29.726 -29.518  0.00  0.00    -0.325 OA
ATOM     24  C5  SGN d   1     -36.313  28.618 -30.207  0.00  0.00     0.181 C 
ATOM     25  N   SGN d   1     -36.110  28.556 -26.010  0.00  0.00    -0.162 NA
ATOM     26  S1  SGN d   1     -35.044  29.628 -25.399  0.00  0.00     0.227 S 
ATOM     27  O2S SGN d   1     -33.647  29.346 -25.959  0.00  0.00    -0.577 OA
ATOM     28  O3S SGN d   1     -35.479  31.044 -25.778  0.00  0.00    -0.577 OA
ATOM     29  O1S SGN d   1     -35.012  29.499 -23.875  0.00  0.00    -0.577 OA
ATOM     30  C6  SGN d   1     -36.648  29.032 -31.630  0.00  0.00     0.214 C 
ATOM     31  O6  SGN d   1     -35.455  29.443 -32.304  0.00  0.00    -0.218 OA
ENDBRANCH   1  17
TORSDOF 8
ENDMDL
MODEL 12
REMARK VINA RESULT:      -3.1      3.015      5.577
REMARK  8 active torsions:
REMARK  status: ('A' for Active; 'I' for Inactive)
REMARK    1  A    between atoms: C6_1  and  C5_27 
REMARK    2  A    between atoms: C6_4  and  C5_23 
REMARK    3  A    between atoms: C1_7  and  O1_9 
REMARK    4  A    between atoms: O1_9  and  C4_31 
REMARK    5  A    between atoms: S_13  and  O2_22 
REMARK    6  A    between atoms: N_19  and  C2_25 
REMARK    7  A    between atoms: N_19  and  S1_28 
REMARK    8  A    between atoms: C2_20  and  O2_22 
ROOT
ATOM      1  O4  SGN d   1     -37.865  29.697 -29.775  0.00  0.00    -0.326 OA
ENDROOT
BRANCH   1   2
ATOM      2  C1  IDS d   2     -36.799  30.374 -29.096  0.00  0.00     0.268 C 
ATOM      3  C2  IDS d   2     -37.393  31.319 -28.064  0.00  0.00     0.224 C 
ATOM      4  C3  IDS d   2     -36.320  31.704 -27.060  0.00  0.00     0.189 C 
ATOM      5  C4  IDS d   2     -35.924  30.459 -26.283  0.00  0.00     0.077 C 
ATOM      6  O3  IDS d   2     -36.845  32.684 -26.152  0.00  0.00    -0.221 OA
ATOM      7  C5  IDS d   2     -36.280  29.227 -27.099  0.00  0.00     0.207 C 
ATOM      8  O5  IDS d   2     -35.906  29.440 -28.467  0.00  0.00    -0.320 OA
ATOM      9  O2  IDS d   2     -37.924  32.480 -28.720  0.00  0.00    -0.233 OA
ATOM     10  S   IDS d   2     -39.308  32.518 -29.097  0.00  0.00     0.252 S 
ATOM     11  O3S IDS d   2     -40.174  32.146 -27.892  0.00  0.00    -0.572 OA
ATOM     12  O1S IDS d   2     -39.669  33.928 -29.568  0.00  0.00    -0.572 OA
ATOM     13  O2S IDS d   2     -39.558  31.524 -30.232  0.00  0.00    -0.572 OA
ATOM     14  C6  IDS d   2     -35.520  28.019 -26.547  0.00  0.00     0.214 C 
ATOM     15  O61 IDS d   2     -34.372  27.821 -26.996  0.00  0.00    -0.646 OA
ATOM     16  O62 IDS d   2     -36.095  27.338 -25.669  0.00  0.00    -0.646 OA
ENDBRANCH 1 2
BRANCH   1  17
ATOM     17  C4  SGN d   1     -37.356  28.678 -30.649  0.00  0.00     0.180 C 
ATOM     18  C3  SGN d   1     -38.196  27.421 -30.487  0.00  0.00     0.210 C 
ATOM     19  O3  SGN d   1     -38.012  26.895 -29.165  0.00  0.00    -0.218 OA
ATOM     20  C2  SGN d   1     -37.771  26.380 -31.510  0.00  0.00     0.210 C 
ATOM     21  C1  SGN d   1     -37.843  26.987 -32.901  0.00  0.00     0.295 C 
ATOM     22  O1  SGN d   1     -39.192  27.396 -33.177  0.00  0.00    -0.188 OA
ATOM     23  O5  SGN d   1     -36.971  28.125 -32.975  0.00  0.00    -0.325 OA
ATOM     24  C5  SGN d   1     -37.432  29.158 -32.089  0.00  0.00     0.181 C 
ATOM     25  N   SGN d   1     -38.623  25.186 -31.405  0.00  0.00    -0.162 NA
ATOM     26  S1  SGN d   1     -38.402  24.214 -32.696  0.00  0.00     0.227 S 
ATOM     27  O2S SGN d   1     -39.184  24.758 -33.894  0.00  0.00    -0.577 OA
ATOM     28  O3S SGN d   1     -36.911  24.154 -33.032  0.00  0.00    -0.577 OA
ATOM     29  O1S SGN d   1     -38.902  22.807 -32.363  0.00  0.00    -0.577 OA
ATOM     30  C6  SGN d   1     -36.569  30.395 -32.267  0.00  0.00     0.214 C 
ATOM     31  O6  SGN d   1     -36.644  30.842 -33.623  0.00  0.00    -0.218 OA
ENDBRANCH   1  17
TORSDOF 8
ENDMDL
MODEL 13
REMARK VINA RESULT:      -3.1      2.682      5.025
REMARK  8 active torsions:
REMARK  status: ('A' for Active; 'I' for Inactive)
REMARK    1  A    between atoms: C6_1  and  C5_27 
REMARK    2  A    between atoms: C6_4  and  C5_23 
REMARK    3  A    between atoms: C1_7  and  O1_9 
REMARK    4  A    between atoms: O1_9  and  C4_31 
REMARK    5  A    between atoms: S_13  and  O2_22 
REMARK    6  A    between atoms: N_19  and  C2_25 
REMARK    7  A    between atoms: N_19  and  S1_28 
REMARK    8  A    between atoms: C2_20  and  O2_22 
ROOT
ATOM      1  O4  SGN d   1     -40.592  25.657 -33.372  0.00  0.00    -0.326 OA
ENDROOT
BRANCH   1   2
ATOM      2  C1  IDS d   2     -39.445  26.459 -33.685  0.00  0.00     0.268 C 
ATOM      3  C2  IDS d   2     -39.869  27.918 -33.758  0.00  0.00     0.224 C 
ATOM      4  C3  IDS d   2     -38.639  28.803 -33.649  0.00  0.00     0.189 C 
ATOM      5  C4  IDS d   2     -38.045  28.628 -32.261  0.00  0.00     0.077 C 
ATOM      6  O3  IDS d   2     -39.021  30.175 -33.833  0.00  0.00    -0.221 OA
ATOM      7  C5  IDS d   2     -38.499  27.294 -31.688  0.00  0.00     0.207 C 
ATOM      8  O5  IDS d   2     -38.408  26.286 -32.705  0.00  0.00    -0.320 OA
ATOM      9  O2  IDS d   2     -40.567  28.157 -34.989  0.00  0.00    -0.233 OA
ATOM     10  S   IDS d   2     -41.999  28.061 -35.030  0.00  0.00     0.252 S 
ATOM     11  O3S IDS d   2     -42.597  28.909 -33.905  0.00  0.00    -0.572 OA
ATOM     12  O1S IDS d   2     -42.505  28.572 -36.380  0.00  0.00    -0.572 OA
ATOM     13  O2S IDS d   2     -42.420  26.602 -34.848  0.00  0.00    -0.572 OA
ATOM     14  C6  IDS d   2     -37.594  26.915 -30.514  0.00  0.00     0.214 C 
ATOM     15  O61 IDS d   2     -36.548  26.291 -30.787  0.00  0.00    -0.646 OA
ATOM     16  O62 IDS d   2     -37.958  27.282 -29.374  0.00  0.00    -0.646 OA
ENDBRANCH 1 2
BRANCH   1  17
ATOM     17  C4  SGN d   1     -40.246  24.265 -33.305  0.00  0.00     0.180 C 
ATOM     18  C3  SGN d   1     -40.613  23.729 -31.931  0.00  0.00     0.210 C 
ATOM     19  O3  SGN d   1     -39.787  24.359 -30.941  0.00  0.00    -0.218 OA
ATOM     20  C2  SGN d   1     -40.396  22.225 -31.888  0.00  0.00     0.210 C 
ATOM     21  C1  SGN d   1     -41.172  21.576 -33.023  0.00  0.00     0.295 C 
ATOM     22  O1  SGN d   1     -42.572  21.855 -32.869  0.00  0.00    -0.188 OA
ATOM     23  O5  SGN d   1     -40.713  22.098 -34.278  0.00  0.00    -0.325 OA
ATOM     24  C5  SGN d   1     -41.014  23.499 -34.371  0.00  0.00     0.181 C 
ATOM     25  N   SGN d   1     -40.812  21.688 -30.583  0.00  0.00    -0.162 NA
ATOM     26  S1  SGN d   1     -40.900  20.060 -30.640  0.00  0.00     0.227 S 
ATOM     27  O2S SGN d   1     -42.207  19.636 -31.315  0.00  0.00    -0.577 OA
ATOM     28  O3S SGN d   1     -39.708  19.518 -31.430  0.00  0.00    -0.577 OA
ATOM     29  O1S SGN d   1     -40.861  19.500 -29.217  0.00  0.00    -0.577 OA
ATOM     30  C6  SGN d   1     -40.629  24.007 -35.749  0.00  0.00     0.214 C 
ATOM     31  O6  SGN d   1     -41.354  23.283 -36.748  0.00  0.00    -0.218 OA
ENDBRANCH   1  17
TORSDOF 8
ENDMDL
MODEL 14
REMARK VINA RESULT:      -3.1      2.834      7.064
REMARK  8 active torsions:
REMARK  status: ('A' for Active; 'I' for Inactive)
REMARK    1  A    between atoms: C6_1  and  C5_27 
REMARK    2  A    between atoms: C6_4  and  C5_23 
REMARK    3  A    between atoms: C1_7  and  O1_9 
REMARK    4  A    between atoms: O1_9  and  C4_31 
REMARK    5  A    between atoms: S_13  and  O2_22 
REMARK    6  A    between atoms: N_19  and  C2_25 
REMARK    7  A    between atoms: N_19  and  S1_28 
REMARK    8  A    between atoms: C2_20  and  O2_22 
ROOT
ATOM      1  O4  SGN d   1     -39.845  26.052 -32.943  0.00  0.00    -0.326 OA
ENDROOT
BRANCH   1   2
ATOM      2  C1  IDS d   2     -39.644  25.503 -34.253  0.00  0.00     0.268 C 
ATOM      3  C2  IDS d   2     -40.606  24.342 -34.454  0.00  0.00     0.224 C 
ATOM      4  C3  IDS d   2     -40.722  24.039 -35.938  0.00  0.00     0.189 C 
ATOM      5  C4  IDS d   2     -41.381  25.228 -36.618  0.00  0.00     0.077 C 
ATOM      6  O3  IDS d   2     -41.537  22.872 -36.124  0.00  0.00    -0.221 OA
ATOM      7  C5  IDS d   2     -41.189  26.466 -35.757  0.00  0.00     0.207 C 
ATOM      8  O5  IDS d   2     -39.840  26.500 -35.270  0.00  0.00    -0.320 OA
ATOM      9  O2  IDS d   2     -40.136  23.195 -33.730  0.00  0.00    -0.233 OA
ATOM     10  S   IDS d   2     -40.607  22.950 -32.396  0.00  0.00     0.252 S 
ATOM     11  O3S IDS d   2     -42.136  23.001 -32.379  0.00  0.00    -0.572 OA
ATOM     12  O1S IDS d   2     -40.137  21.568 -31.937  0.00  0.00    -0.572 OA
ATOM     13  O2S IDS d   2     -40.050  24.016 -31.452  0.00  0.00    -0.572 OA
ATOM     14  C6  IDS d   2     -41.456  27.714 -36.601  0.00  0.00     0.214 C 
ATOM     15  O61 IDS d   2     -40.492  28.176 -37.245  0.00  0.00    -0.646 OA
ATOM     16  O62 IDS d   2     -42.625  28.161 -36.602  0.00  0.00    -0.646 OA
ENDBRANCH 1 2
BRANCH   1  17
ATOM     17  C4  SGN d   1     -38.809  26.989 -32.611  0.00  0.00     0.180 C 
ATOM     18  C3  SGN d   1     -39.341  27.970 -31.580  0.00  0.00     0.210 C 
ATOM     19  O3  SGN d   1     -40.377  28.767 -32.173  0.00  0.00    -0.218 OA
ATOM     20  C2  SGN d   1     -38.218  28.877 -31.102  0.00  0.00     0.210 C 
ATOM     21  C1  SGN d   1     -37.068  28.022 -30.594  0.00  0.00     0.295 C 
ATOM     22  O1  SGN d   1     -37.519  27.212 -29.498  0.00  0.00    -0.188 OA
ATOM     23  O5  SGN d   1     -36.593  27.178 -31.653  0.00  0.00    -0.325 OA
ATOM     24  C5  SGN d   1     -37.615  26.244 -32.036  0.00  0.00     0.181 C 
ATOM     25  N   SGN d   1     -38.708  29.786 -30.055  0.00  0.00    -0.162 NA
ATOM     26  S1  SGN d   1     -37.458  30.520 -29.307  0.00  0.00     0.227 S 
ATOM     27  O2S SGN d   1     -36.830  29.565 -28.289  0.00  0.00    -0.577 OA
ATOM     28  O3S SGN d   1     -36.415  30.926 -30.350  0.00  0.00    -0.577 OA
ATOM     29  O1S SGN d   1     -37.962  31.770 -28.584  0.00  0.00    -0.577 OA
ATOM     30  C6  SGN d   1     -37.058  25.283 -33.072  0.00  0.00     0.214 C 
ATOM     31  O6  SGN d   1     -35.935  24.586 -32.525  0.00  0.00    -0.218 OA
ENDBRANCH   1  17
TORSDOF 8
ENDMDL
MODEL 15
REMARK VINA RESULT:      -3.0      3.875      6.848
REMARK  8 active torsions:
REMARK  status: ('A' for Active; 'I' for Inactive)
REMARK    1  A    between atoms: C6_1  and  C5_27 
REMARK    2  A    between atoms: C6_4  and  C5_23 
REMARK    3  A    between atoms: C1_7  and  O1_9 
REMARK    4  A    between atoms: O1_9  and  C4_31 
REMARK    5  A    between atoms: S_13  and  O2_22 
REMARK    6  A    between atoms: N_19  and  C2_25 
REMARK    7  A    between atoms: N_19  and  S1_28 
REMARK    8  A    between atoms: C2_20  and  O2_22 
ROOT
ATOM      1  O4  SGN d   1     -36.071  29.847 -28.292  0.00  0.00    -0.326 OA
ENDROOT
BRANCH   1   2
ATOM      2  C1  IDS d   2     -34.842  30.211 -27.648  0.00  0.00     0.268 C 
ATOM      3  C2  IDS d   2     -35.101  31.392 -26.725  0.00  0.00     0.224 C 
ATOM      4  C3  IDS d   2     -33.958  31.509 -25.731  0.00  0.00     0.189 C 
ATOM      5  C4  IDS d   2     -33.980  30.285 -24.830  0.00  0.00     0.077 C 
ATOM      6  O3  IDS d   2     -34.140  32.689 -24.933  0.00  0.00    -0.221 OA
ATOM      7  C5  IDS d   2     -34.714  29.157 -25.539  0.00  0.00     0.207 C 
ATOM      8  O5  IDS d   2     -34.295  29.106 -26.909  0.00  0.00    -0.320 OA
ATOM      9  O2  IDS d   2     -35.233  32.592 -27.501  0.00  0.00    -0.233 OA
ATOM     10  S   IDS d   2     -36.533  33.033 -27.920  0.00  0.00     0.252 S 
ATOM     11  O3S IDS d   2     -37.470  33.075 -26.711  0.00  0.00    -0.572 OA
ATOM     12  O1S IDS d   2     -36.423  34.432 -28.530  0.00  0.00    -0.572 OA
ATOM     13  O2S IDS d   2     -37.090  32.065 -28.964  0.00  0.00    -0.572 OA
ATOM     14  C6  IDS d   2     -34.380  27.830 -24.855  0.00  0.00     0.214 C 
ATOM     15  O61 IDS d   2     -33.357  27.233 -25.251  0.00  0.00    -0.646 OA
ATOM     16  O62 IDS d   2     -35.141  27.456 -23.935  0.00  0.00    -0.646 OA
ENDBRANCH 1 2
BRANCH   1  17
ATOM     17  C4  SGN d   1     -35.845  28.872 -29.321  0.00  0.00     0.180 C 
ATOM     18  C3  SGN d   1     -37.069  27.978 -29.433  0.00  0.00     0.210 C 
ATOM     19  O3  SGN d   1     -37.209  27.211 -28.228  0.00  0.00    -0.218 OA
ATOM     20  C2  SGN d   1     -36.915  27.036 -30.616  0.00  0.00     0.210 C 
ATOM     21  C1  SGN d   1     -36.636  27.849 -31.870  0.00  0.00     0.295 C 
ATOM     22  O1  SGN d   1     -37.734  28.741 -32.118  0.00  0.00    -0.188 OA
ATOM     23  O5  SGN d   1     -35.431  28.608 -31.692  0.00  0.00    -0.325 OA
ATOM     24  C5  SGN d   1     -35.607  29.577 -30.646  0.00  0.00     0.181 C 
ATOM     25  N   SGN d   1     -38.123  26.212 -30.774  0.00  0.00    -0.162 NA
ATOM     26  S1  SGN d   1     -38.109  25.449 -32.215  0.00  0.00     0.227 S 
ATOM     27  O2S SGN d   1     -38.535  26.420 -33.319  0.00  0.00    -0.577 OA
ATOM     28  O3S SGN d   1     -36.698  24.930 -32.497  0.00  0.00    -0.577 OA
ATOM     29  O1S SGN d   1     -39.082  24.270 -32.174  0.00  0.00    -0.577 OA
ATOM     30  C6  SGN d   1     -34.367  30.448 -30.552  0.00  0.00     0.214 C 
ATOM     31  O6  SGN d   1     -34.148  31.109 -31.802  0.00  0.00    -0.218 OA
ENDBRANCH   1  17
TORSDOF 8
ENDMDL
MODEL 16
REMARK VINA RESULT:      -2.9      1.834      2.011
REMARK  8 active torsions:
REMARK  status: ('A' for Active; 'I' for Inactive)
REMARK    1  A    between atoms: C6_1  and  C5_27 
REMARK    2  A    between atoms: C6_4  and  C5_23 
REMARK    3  A    between atoms: C1_7  and  O1_9 
REMARK    4  A    between atoms: O1_9  and  C4_31 
REMARK    5  A    between atoms: S_13  and  O2_22 
REMARK    6  A    between atoms: N_19  and  C2_25 
REMARK    7  A    between atoms: N_19  and  S1_28 
REMARK    8  A    between atoms: C2_20  and  O2_22 
ROOT
ATOM      1  O4  SGN d   1     -39.367  26.344 -31.370  0.00  0.00    -0.326 OA
ENDROOT
BRANCH   1   2
ATOM      2  C1  IDS d   2     -39.845  27.682 -31.565  0.00  0.00     0.268 C 
ATOM      3  C2  IDS d   2     -38.654  28.604 -31.777  0.00  0.00     0.224 C 
ATOM      4  C3  IDS d   2     -39.132  29.901 -32.407  0.00  0.00     0.189 C 
ATOM      5  C4  IDS d   2     -39.652  29.593 -33.801  0.00  0.00     0.077 C 
ATOM      6  O3  IDS d   2     -38.032  30.819 -32.502  0.00  0.00    -0.221 OA
ATOM      7  C5  IDS d   2     -40.035  28.123 -33.878  0.00  0.00     0.207 C 
ATOM      8  O5  IDS d   2     -40.743  27.755 -32.686  0.00  0.00    -0.320 OA
ATOM      9  O2  IDS d   2     -38.005  28.851 -30.521  0.00  0.00    -0.233 OA
ATOM     10  S   IDS d   2     -36.901  28.030 -30.113  0.00  0.00     0.252 S 
ATOM     11  O3S IDS d   2     -35.870  27.966 -31.241  0.00  0.00    -0.572 OA
ATOM     12  O1S IDS d   2     -36.254  28.630 -28.863  0.00  0.00    -0.572 OA
ATOM     13  O2S IDS d   2     -37.401  26.619 -29.798  0.00  0.00    -0.572 OA
ATOM     14  C6  IDS d   2     -40.935  27.898 -35.094  0.00  0.00     0.214 C 
ATOM     15  O61 IDS d   2     -42.161  28.071 -34.927  0.00  0.00    -0.646 OA
ATOM     16  O62 IDS d   2     -40.375  27.585 -36.167  0.00  0.00    -0.646 OA
ENDBRANCH 1 2
BRANCH   1  17
ATOM     17  C4  SGN d   1     -40.393  25.382 -31.658  0.00  0.00     0.180 C 
ATOM     18  C3  SGN d   1     -39.761  24.161 -32.306  0.00  0.00     0.210 C 
ATOM     19  O3  SGN d   1     -39.233  24.526 -33.590  0.00  0.00    -0.218 OA
ATOM     20  C2  SGN d   1     -40.805  23.070 -32.480  0.00  0.00     0.210 C 
ATOM     21  C1  SGN d   1     -41.453  22.779 -31.136  0.00  0.00     0.295 C 
ATOM     22  O1  SGN d   1     -40.454  22.332 -30.207  0.00  0.00    -0.188 OA
ATOM     23  O5  SGN d   1     -42.076  23.972 -30.636  0.00  0.00    -0.325 OA
ATOM     24  C5  SGN d   1     -41.081  24.972 -30.365  0.00  0.00     0.181 C 
ATOM     25  N   SGN d   1     -40.188  21.860 -33.045  0.00  0.00    -0.162 NA
ATOM     26  S1  SGN d   1     -41.206  20.592 -32.925  0.00  0.00     0.227 S 
ATOM     27  O2S SGN d   1     -41.172  20.034 -31.500  0.00  0.00    -0.577 OA
ATOM     28  O3S SGN d   1     -42.624  21.050 -33.270  0.00  0.00    -0.577 OA
ATOM     29  O1S SGN d   1     -40.774  19.500 -33.906  0.00  0.00    -0.577 OA
ATOM     30  C6  SGN d   1     -41.743  26.181 -29.727  0.00  0.00     0.214 C 
ATOM     31  O6  SGN d   1     -42.389  25.789 -28.512  0.00  0.00    -0.218 OA
ENDBRANCH   1  17
TORSDOF 8
ENDMDL
MODEL 17
REMARK VINA RESULT:      -2.9      3.584      7.302
REMARK  8 active torsions:
REMARK  status: ('A' for Active; 'I' for Inactive)
REMARK    1  A    between atoms: C6_1  and  C5_27 
REMARK    2  A    between atoms: C6_4  and  C5_23 
REMARK    3  A    between atoms: C1_7  and  O1_9 
REMARK    4  A    between atoms: O1_9  and  C4_31 
REMARK    5  A    between atoms: S_13  and  O2_22 
REMARK    6  A    between atoms: N_19  and  C2_25 
REMARK    7  A    between atoms: N_19  and  S1_28 
REMARK    8  A    between atoms: C2_20  and  O2_22 
ROOT
ATOM      1  O4  SGN d   1     -37.728  28.210 -31.107  0.00  0.00    -0.326 OA
ENDROOT
BRANCH   1   2
ATOM      2  C1  IDS d   2     -38.701  29.046 -31.749  0.00  0.00     0.268 C 
ATOM      3  C2  IDS d   2     -39.167  28.367 -33.027  0.00  0.00     0.224 C 
ATOM      4  C3  IDS d   2     -40.474  28.995 -33.480  0.00  0.00     0.189 C 
ATOM      5  C4  IDS d   2     -41.541  28.676 -32.445  0.00  0.00     0.077 C 
ATOM      6  O3  IDS d   2     -40.858  28.437 -34.746  0.00  0.00    -0.221 OA
ATOM      7  C5  IDS d   2     -40.870  28.360 -31.117  0.00  0.00     0.207 C 
ATOM      8  O5  IDS d   2     -39.818  29.305 -30.882  0.00  0.00    -0.320 OA
ATOM      9  O2  IDS d   2     -38.157  28.496 -34.039  0.00  0.00    -0.233 OA
ATOM     10  S   IDS d   2     -37.180  27.459 -34.211  0.00  0.00     0.252 S 
ATOM     11  O3S IDS d   2     -37.890  26.108 -34.337  0.00  0.00    -0.572 OA
ATOM     12  O1S IDS d   2     -36.369  27.729 -35.480  0.00  0.00    -0.572 OA
ATOM     13  O2S IDS d   2     -36.242  27.432 -33.004  0.00  0.00    -0.572 OA
ATOM     14  C6  IDS d   2     -41.904  28.459 -29.994  0.00  0.00     0.214 C 
ATOM     15  O61 IDS d   2     -42.078  29.586 -29.485  0.00  0.00    -0.646 OA
ATOM     16  O62 IDS d   2     -42.515  27.411 -29.688  0.00  0.00    -0.646 OA
ENDBRANCH 1 2
BRANCH   1  17
ATOM     17  C4  SGN d   1     -37.225  28.828 -29.913  0.00  0.00     0.180 C 
ATOM     18  C3  SGN d   1     -37.275  27.822 -28.775  0.00  0.00     0.210 C 
ATOM     19  O3  SGN d   1     -38.645  27.512 -28.477  0.00  0.00    -0.218 OA
ATOM     20  C2  SGN d   1     -36.607  28.404 -27.540  0.00  0.00     0.210 C 
ATOM     21  C1  SGN d   1     -35.199  28.851 -27.896  0.00  0.00     0.295 C 
ATOM     22  O1  SGN d   1     -34.439  27.722 -28.356  0.00  0.00    -0.188 OA
ATOM     23  O5  SGN d   1     -35.258  29.844 -28.931  0.00  0.00    -0.325 OA
ATOM     24  C5  SGN d   1     -35.787  29.270 -30.137  0.00  0.00     0.181 C 
ATOM     25  N   SGN d   1     -36.592  27.412 -26.454  0.00  0.00    -0.162 NA
ATOM     26  S1  SGN d   1     -35.597  27.895 -25.255  0.00  0.00     0.227 S 
ATOM     27  O2S SGN d   1     -34.144  27.606 -25.640  0.00  0.00    -0.577 OA
ATOM     28  O3S SGN d   1     -35.783  29.395 -25.019  0.00  0.00    -0.577 OA
ATOM     29  O1S SGN d   1     -35.941  27.136 -23.973  0.00  0.00    -0.577 OA
ATOM     30  C6  SGN d   1     -35.732  30.300 -31.252  0.00  0.00     0.214 C 
ATOM     31  O6  SGN d   1     -34.377  30.713 -31.457  0.00  0.00    -0.218 OA
ENDBRANCH   1  17
TORSDOF 8
ENDMDL
MODEL 18
REMARK VINA RESULT:      -2.9      2.888      7.482
REMARK  8 active torsions:
REMARK  status: ('A' for Active; 'I' for Inactive)
REMARK    1  A    between atoms: C6_1  and  C5_27 
REMARK    2  A    between atoms: C6_4  and  C5_23 
REMARK    3  A    between atoms: C1_7  and  O1_9 
REMARK    4  A    between atoms: O1_9  and  C4_31 
REMARK    5  A    between atoms: S_13  and  O2_22 
REMARK    6  A    between atoms: N_19  and  C2_25 
REMARK    7  A    between atoms: N_19  and  S1_28 
REMARK    8  A    between atoms: C2_20  and  O2_22 
ROOT
ATOM      1  O4  SGN d   1     -38.584  27.183 -31.778  0.00  0.00    -0.326 OA
ENDROOT
BRANCH   1   2
ATOM      2  C1  IDS d   2     -39.385  27.195 -32.968  0.00  0.00     0.268 C 
ATOM      3  C2  IDS d   2     -40.439  26.104 -32.864  0.00  0.00     0.224 C 
ATOM      4  C3  IDS d   2     -41.542  26.375 -33.873  0.00  0.00     0.189 C 
ATOM      5  C4  IDS d   2     -42.253  27.657 -33.470  0.00  0.00     0.077 C 
ATOM      6  O3  IDS d   2     -42.479  25.287 -33.859  0.00  0.00    -0.221 OA
ATOM      7  C5  IDS d   2     -41.326  28.489 -32.598  0.00  0.00     0.207 C 
ATOM      8  O5  IDS d   2     -40.007  28.477 -33.162  0.00  0.00    -0.320 OA
ATOM      9  O2  IDS d   2     -39.832  24.824 -33.098  0.00  0.00    -0.233 OA
ATOM     10  S   IDS d   2     -39.360  24.043 -31.989  0.00  0.00     0.252 S 
ATOM     11  O3S IDS d   2     -40.470  23.924 -30.943  0.00  0.00    -0.572 OA
ATOM     12  O1S IDS d   2     -38.969  22.648 -32.480  0.00  0.00    -0.572 OA
ATOM     13  O2S IDS d   2     -38.141  24.724 -31.365  0.00  0.00    -0.572 OA
ATOM     14  C6  IDS d   2     -41.842  29.929 -32.543  0.00  0.00     0.214 C 
ATOM     15  O61 IDS d   2     -41.463  30.699 -33.450  0.00  0.00    -0.646 OA
ATOM     16  O62 IDS d   2     -42.625  30.217 -31.611  0.00  0.00    -0.646 OA
ENDBRANCH 1 2
BRANCH   1  17
ATOM     17  C4  SGN d   1     -37.715  28.324 -31.729  0.00  0.00     0.180 C 
ATOM     18  C3  SGN d   1     -37.574  28.777 -30.285  0.00  0.00     0.210 C 
ATOM     19  O3  SGN d   1     -38.840  29.261 -29.814  0.00  0.00    -0.218 OA
ATOM     20  C2  SGN d   1     -36.540  29.888 -30.190  0.00  0.00     0.210 C 
ATOM     21  C1  SGN d   1     -35.237  29.413 -30.811  0.00  0.00     0.295 C 
ATOM     22  O1  SGN d   1     -34.758  28.261 -30.099  0.00  0.00    -0.188 OA
ATOM     23  O5  SGN d   1     -35.457  29.069 -32.187  0.00  0.00    -0.325 OA
ATOM     24  C5  SGN d   1     -36.349  27.947 -32.279  0.00  0.00     0.181 C 
ATOM     25  N   SGN d   1     -36.348  30.287 -28.788  0.00  0.00    -0.162 NA
ATOM     26  S1  SGN d   1     -35.022  31.225 -28.639  0.00  0.00     0.227 S 
ATOM     27  O2S SGN d   1     -33.766  30.351 -28.641  0.00  0.00    -0.577 OA
ATOM     28  O3S SGN d   1     -34.970  32.212 -29.807  0.00  0.00    -0.577 OA
ATOM     29  O1S SGN d   1     -35.096  32.002 -27.324  0.00  0.00    -0.577 OA
ATOM     30  C6  SGN d   1     -36.477  27.524 -33.732  0.00  0.00     0.214 C 
ATOM     31  O6  SGN d   1     -35.189  27.171 -34.245  0.00  0.00    -0.218 OA
ENDBRANCH   1  17
TORSDOF 8
ENDMDL
MODEL 19
REMARK VINA RESULT:      -2.8      3.014      4.673
REMARK  8 active torsions:
REMARK  status: ('A' for Active; 'I' for Inactive)
REMARK    1  A    between atoms: C6_1  and  C5_27 
REMARK    2  A    between atoms: C6_4  and  C5_23 
REMARK    3  A    between atoms: C1_7  and  O1_9 
REMARK    4  A    between atoms: O1_9  and  C4_31 
REMARK    5  A    between atoms: S_13  and  O2_22 
REMARK    6  A    between atoms: N_19  and  C2_25 
REMARK    7  A    between atoms: N_19  and  S1_28 
REMARK    8  A    between atoms: C2_20  and  O2_22 
ROOT
ATOM      1  O4  SGN d   1     -37.442  29.532 -28.729  0.00  0.00    -0.326 OA
ENDROOT
BRANCH   1   2
ATOM      2  C1  IDS d   2     -37.028  30.901 -28.830  0.00  0.00     0.268 C 
ATOM      3  C2  IDS d   2     -36.717  31.426 -27.437  0.00  0.00     0.224 C 
ATOM      4  C3  IDS d   2     -35.880  32.688 -27.553  0.00  0.00     0.189 C 
ATOM      5  C4  IDS d   2     -34.533  32.315 -28.149  0.00  0.00     0.077 C 
ATOM      6  O3  IDS d   2     -35.682  33.251 -26.246  0.00  0.00    -0.221 OA
ATOM      7  C5  IDS d   2     -34.670  31.009 -28.915  0.00  0.00     0.207 C 
ATOM      8  O5  IDS d   2     -35.880  31.036 -29.685  0.00  0.00    -0.320 OA
ATOM      9  O2  IDS d   2     -37.942  31.684 -26.734  0.00  0.00    -0.233 OA
ATOM     10  S   IDS d   2     -38.508  30.671 -25.889  0.00  0.00     0.252 S 
ATOM     11  O3S IDS d   2     -37.438  30.158 -24.923  0.00  0.00    -0.572 OA
ATOM     12  O1S IDS d   2     -39.671  31.265 -25.092  0.00  0.00    -0.572 OA
ATOM     13  O2S IDS d   2     -39.019  29.514 -26.748  0.00  0.00    -0.572 OA
ATOM     14  C6  IDS d   2     -33.474  30.846 -29.854  0.00  0.00     0.214 C 
ATOM     15  O61 IDS d   2     -33.570  31.364 -30.986  0.00  0.00    -0.646 OA
ATOM     16  O62 IDS d   2     -32.481  30.229 -29.409  0.00  0.00    -0.646 OA
ENDBRANCH 1 2
BRANCH   1  17
ATOM     17  C4  SGN d   1     -37.794  29.003 -30.017  0.00  0.00     0.180 C 
ATOM     18  C3  SGN d   1     -37.339  27.555 -30.098  0.00  0.00     0.210 C 
ATOM     19  O3  SGN d   1     -35.905  27.506 -30.063  0.00  0.00    -0.218 OA
ATOM     20  C2  SGN d   1     -37.834  26.930 -31.392  0.00  0.00     0.210 C 
ATOM     21  C1  SGN d   1     -39.341  27.101 -31.486  0.00  0.00     0.295 C 
ATOM     22  O1  SGN d   1     -39.969  26.444 -30.374  0.00  0.00    -0.188 OA
ATOM     23  O5  SGN d   1     -39.668  28.499 -31.465  0.00  0.00    -0.325 OA
ATOM     24  C5  SGN d   1     -39.301  29.073 -30.201  0.00  0.00     0.181 C 
ATOM     25  N   SGN d   1     -37.455  25.510 -31.450  0.00  0.00    -0.162 NA
ATOM     26  S1  SGN d   1     -38.256  24.755 -32.653  0.00  0.00     0.227 S 
ATOM     27  O2S SGN d   1     -39.684  24.433 -32.204  0.00  0.00    -0.577 OA
ATOM     28  O3S SGN d   1     -38.291  25.664 -33.883  0.00  0.00    -0.577 OA
ATOM     29  O1S SGN d   1     -37.533  23.454 -33.006  0.00  0.00    -0.577 OA
ATOM     30  C6  SGN d   1     -39.760  30.520 -30.152  0.00  0.00     0.214 C 
ATOM     31  O6  SGN d   1     -41.179  30.580 -30.326  0.00  0.00    -0.218 OA
ENDBRANCH   1  17
TORSDOF 8
ENDMDL
MODEL 20
REMARK VINA RESULT:      -2.8      2.746      4.951
REMARK  8 active torsions:
REMARK  status: ('A' for Active; 'I' for Inactive)
REMARK    1  A    between atoms: C6_1  and  C5_27 
REMARK    2  A    between atoms: C6_4  and  C5_23 
REMARK    3  A    between atoms: C1_7  and  O1_9 
REMARK    4  A    between atoms: O1_9  and  C4_31 
REMARK    5  A    between atoms: S_13  and  O2_22 
REMARK    6  A    between atoms: N_19  and  C2_25 
REMARK    7  A    between atoms: N_19  and  S1_28 
REMARK    8  A    between atoms: C2_20  and  O2_22 
ROOT
ATOM      1  O4  SGN d   1     -39.483  28.822 -31.569  0.00  0.00    -0.326 OA
ENDROOT
BRANCH   1   2
ATOM      2  C1  IDS d   2     -38.603  29.591 -30.737  0.00  0.00     0.268 C 
ATOM      3  C2  IDS d   2     -39.377  30.759 -30.147  0.00  0.00     0.224 C 
ATOM      4  C3  IDS d   2     -38.616  31.313 -28.955  0.00  0.00     0.189 C 
ATOM      5  C4  IDS d   2     -38.598  30.253 -27.865  0.00  0.00     0.077 C 
ATOM      6  O3  IDS d   2     -39.283  32.486 -28.466  0.00  0.00    -0.221 OA
ATOM      7  C5  IDS d   2     -38.821  28.887 -28.494  0.00  0.00     0.207 C 
ATOM      8  O5  IDS d   2     -38.038  28.782 -29.691  0.00  0.00    -0.320 OA
ATOM      9  O2  IDS d   2     -39.567  31.769 -31.150  0.00  0.00    -0.233 OA
ATOM     10  S   IDS d   2     -40.765  31.776 -31.940  0.00  0.00     0.252 S 
ATOM     11  O3S IDS d   2     -41.983  31.707 -31.016  0.00  0.00    -0.572 OA
ATOM     12  O1S IDS d   2     -40.822  33.062 -32.766  0.00  0.00    -0.572 OA
ATOM     13  O2S IDS d   2     -40.767  30.568 -32.878  0.00  0.00    -0.572 OA
ATOM     14  C6  IDS d   2     -38.388  27.801 -27.507  0.00  0.00     0.214 C 
ATOM     15  O61 IDS d   2     -37.185  27.466 -27.529  0.00  0.00    -0.646 OA
ATOM     16  O62 IDS d   2     -39.264  27.349 -26.737  0.00  0.00    -0.646 OA
ENDBRANCH 1 2
BRANCH   1  17
ATOM     17  C4  SGN d   1     -38.955  27.509 -31.805  0.00  0.00     0.180 C 
ATOM     18  C3  SGN d   1     -40.055  26.484 -31.578  0.00  0.00     0.210 C 
ATOM     19  O3  SGN d   1     -40.425  26.485 -30.191  0.00  0.00    -0.218 OA
ATOM     20  C2  SGN d   1     -39.561  25.100 -31.968  0.00  0.00     0.210 C 
ATOM     21  C1  SGN d   1     -39.048  25.138 -33.399  0.00  0.00     0.295 C 
ATOM     22  O1  SGN d   1     -40.113  25.525 -34.281  0.00  0.00    -0.188 OA
ATOM     23  O5  SGN d   1     -37.973  26.084 -33.499  0.00  0.00    -0.325 OA
ATOM     24  C5  SGN d   1     -38.457  27.411 -33.238  0.00  0.00     0.181 C 
ATOM     25  N   SGN d   1     -40.639  24.112 -31.815  0.00  0.00    -0.162 NA
ATOM     26  S1  SGN d   1     -40.232  22.708 -32.538  0.00  0.00     0.227 S 
ATOM     27  O2S SGN d   1     -40.449  22.822 -34.049  0.00  0.00    -0.577 OA
ATOM     28  O3S SGN d   1     -38.763  22.398 -32.246  0.00  0.00    -0.577 OA
ATOM     29  O1S SGN d   1     -41.106  21.581 -31.986  0.00  0.00    -0.577 OA
ATOM     30  C6  SGN d   1     -37.336  28.410 -33.464  0.00  0.00     0.214 C 
ATOM     31  O6  SGN d   1     -36.871  28.313 -34.813  0.00  0.00    -0.218 OA
ENDBRANCH   1  17
TORSDOF 8
ENDMDL
MODEL 21
REMARK VINA RESULT:      -2.8      3.259      6.034
REMARK  8 active torsions:
REMARK  status: ('A' for Active; 'I' for Inactive)
REMARK    1  A    between atoms: C6_1  and  C5_27 
REMARK    2  A    between atoms: C6_4  and  C5_23 
REMARK    3  A    between atoms: C1_7  and  O1_9 
REMARK    4  A    between atoms: O1_9  and  C4_31 
REMARK    5  A    between atoms: S_13  and  O2_22 
REMARK    6  A    between atoms: N_19  and  C2_25 
REMARK    7  A    between atoms: N_19  and  S1_28 
REMARK    8  A    between atoms: C2_20  and  O2_22 
ROOT
ATOM      1  O4  SGN d   1     -38.186  29.685 -29.232  0.00  0.00    -0.326 OA
ENDROOT
BRANCH   1   2
ATOM      2  C1  IDS d   2     -37.331  30.099 -28.158  0.00  0.00     0.268 C 
ATOM      3  C2  IDS d   2     -38.088  31.081 -27.277  0.00  0.00     0.224 C 
ATOM      4  C3  IDS d   2     -37.389  31.188 -25.932  0.00  0.00     0.189 C 
ATOM      5  C4  IDS d   2     -37.503  29.847 -25.226  0.00  0.00     0.077 C 
ATOM      6  O3  IDS d   2     -38.031  32.198 -25.140  0.00  0.00    -0.221 OA
ATOM      7  C5  IDS d   2     -37.746  28.758 -26.259  0.00  0.00     0.207 C 
ATOM      8  O5  IDS d   2     -36.885  28.971 -27.385  0.00  0.00    -0.320 OA
ATOM      9  O2  IDS d   2     -38.154  32.359 -27.925  0.00  0.00    -0.233 OA
ATOM     10  S   IDS d   2     -39.290  32.691 -28.737  0.00  0.00     0.252 S 
ATOM     11  O3S IDS d   2     -40.574  32.428 -27.947  0.00  0.00    -0.572 OA
ATOM     12  O1S IDS d   2     -39.224  34.170 -29.125  0.00  0.00    -0.572 OA
ATOM     13  O2S IDS d   2     -39.284  31.833 -30.003  0.00  0.00    -0.572 OA
ATOM     14  C6  IDS d   2     -37.440  27.394 -25.636  0.00  0.00     0.214 C 
ATOM     15  O61 IDS d   2     -36.257  27.000 -25.695  0.00  0.00    -0.646 OA
ATOM     16  O62 IDS d   2     -38.391  26.790 -25.092  0.00  0.00    -0.646 OA
ENDBRANCH 1 2
BRANCH   1  17
ATOM     17  C4  SGN d   1     -37.582  28.630 -29.996  0.00  0.00     0.180 C 
ATOM     18  C3  SGN d   1     -38.661  27.652 -30.430  0.00  0.00     0.210 C 
ATOM     19  O3  SGN d   1     -39.204  27.000 -29.273  0.00  0.00    -0.218 OA
ATOM     20  C2  SGN d   1     -38.068  26.610 -31.366  0.00  0.00     0.210 C 
ATOM     21  C1  SGN d   1     -37.380  27.313 -32.524  0.00  0.00     0.295 C 
ATOM     22  O1  SGN d   1     -38.338  28.103 -33.245  0.00  0.00    -0.188 OA
ATOM     23  O5  SGN d   1     -36.338  28.162 -32.020  0.00  0.00    -0.325 OA
ATOM     24  C5  SGN d   1     -36.903  29.215 -31.223  0.00  0.00     0.181 C 
ATOM     25  N   SGN d   1     -39.119  25.699 -31.844  0.00  0.00    -0.162 NA
ATOM     26  S1  SGN d   1     -38.569  24.800 -33.089  0.00  0.00     0.227 S 
ATOM     27  O2S SGN d   1     -38.596  25.628 -34.377  0.00  0.00    -0.577 OA
ATOM     28  O3S SGN d   1     -37.139  24.349 -32.792  0.00  0.00    -0.577 OA
ATOM     29  O1S SGN d   1     -39.462  23.570 -33.260  0.00  0.00    -0.577 OA
ATOM     30  C6  SGN d   1     -35.801  30.170 -30.797  0.00  0.00     0.214 C 
ATOM     31  O6  SGN d   1     -35.165  30.718 -31.956  0.00  0.00    -0.218 OA
ENDBRANCH   1  17
TORSDOF 8
ENDMDL
MODEL 22
REMARK VINA RESULT:      -2.8      3.527      5.911
REMARK  8 active torsions:
REMARK  status: ('A' for Active; 'I' for Inactive)
REMARK    1  A    between atoms: C6_1  and  C5_27 
REMARK    2  A    between atoms: C6_4  and  C5_23 
REMARK    3  A    between atoms: C1_7  and  O1_9 
REMARK    4  A    between atoms: O1_9  and  C4_31 
REMARK    5  A    between atoms: S_13  and  O2_22 
REMARK    6  A    between atoms: N_19  and  C2_25 
REMARK    7  A    between atoms: N_19  and  S1_28 
REMARK    8  A    between atoms: C2_20  and  O2_22 
ROOT
ATOM      1  O4  SGN d   1     -37.148  29.393 -28.395  0.00  0.00    -0.326 OA
ENDROOT
BRANCH   1   2
ATOM      2  C1  IDS d   2     -37.861  30.237 -27.481  0.00  0.00     0.268 C 
ATOM      3  C2  IDS d   2     -37.088  30.311 -26.173  0.00  0.00     0.224 C 
ATOM      4  C3  IDS d   2     -37.571  31.509 -25.373  0.00  0.00     0.189 C 
ATOM      5  C4  IDS d   2     -37.197  32.772 -26.131  0.00  0.00     0.077 C 
ATOM      6  O3  IDS d   2     -36.927  31.516 -24.090  0.00  0.00    -0.221 OA
ATOM      7  C5  IDS d   2     -37.001  32.433 -27.601  0.00  0.00     0.207 C 
ATOM      8  O5  IDS d   2     -38.050  31.553 -28.028  0.00  0.00    -0.320 OA
ATOM      9  O2  IDS d   2     -37.269  29.093 -25.436  0.00  0.00    -0.233 OA
ATOM     10  S   IDS d   2     -36.322  28.024 -25.576  0.00  0.00     0.252 S 
ATOM     11  O3S IDS d   2     -34.907  28.568 -25.366  0.00  0.00    -0.572 OA
ATOM     12  O1S IDS d   2     -36.614  26.945 -24.532  0.00  0.00    -0.572 OA
ATOM     13  O2S IDS d   2     -36.434  27.421 -26.977  0.00  0.00    -0.572 OA
ATOM     14  C6  IDS d   2     -37.050  33.720 -28.426  0.00  0.00     0.214 C 
ATOM     15  O61 IDS d   2     -38.176  34.107 -28.803  0.00  0.00    -0.646 OA
ATOM     16  O62 IDS d   2     -35.963  34.302 -28.639  0.00  0.00    -0.646 OA
ENDBRANCH 1 2
BRANCH   1  17
ATOM     17  C4  SGN d   1     -37.892  29.201 -29.608  0.00  0.00     0.180 C 
ATOM     18  C3  SGN d   1     -36.926  29.167 -30.781  0.00  0.00     0.210 C 
ATOM     19  O3  SGN d   1     -36.314  30.456 -30.929  0.00  0.00    -0.218 OA
ATOM     20  C2  SGN d   1     -37.674  28.814 -32.056  0.00  0.00     0.210 C 
ATOM     21  C1  SGN d   1     -38.428  27.510 -31.849  0.00  0.00     0.295 C 
ATOM     22  O1  SGN d   1     -37.498  26.461 -31.543  0.00  0.00    -0.188 OA
ATOM     23  O5  SGN d   1     -39.358  27.660 -30.766  0.00  0.00    -0.325 OA
ATOM     24  C5  SGN d   1     -38.651  27.886 -29.536  0.00  0.00     0.181 C 
ATOM     25  N   SGN d   1     -36.738  28.713 -33.186  0.00  0.00    -0.162 NA
ATOM     26  S1  SGN d   1     -37.465  28.016 -34.469  0.00  0.00     0.227 S 
ATOM     27  O2S SGN d   1     -37.513  26.499 -34.276  0.00  0.00    -0.577 OA
ATOM     28  O3S SGN d   1     -38.885  28.568 -34.604  0.00  0.00    -0.577 OA
ATOM     29  O1S SGN d   1     -36.674  28.340 -35.737  0.00  0.00    -0.577 OA
ATOM     30  C6  SGN d   1     -39.641  27.924 -28.385  0.00  0.00     0.214 C 
ATOM     31  O6  SGN d   1     -40.352  26.684 -28.322  0.00  0.00    -0.218 OA
ENDBRANCH   1  17
TORSDOF 8
ENDMDL
MODEL 23
REMARK VINA RESULT:      -2.6      3.098      7.358
REMARK  8 active torsions:
REMARK  status: ('A' for Active; 'I' for Inactive)
REMARK    1  A    between atoms: C6_1  and  C5_27 
REMARK    2  A    between atoms: C6_4  and  C5_23 
REMARK    3  A    between atoms: C1_7  and  O1_9 
REMARK    4  A    between atoms: O1_9  and  C4_31 
REMARK    5  A    between atoms: S_13  and  O2_22 
REMARK    6  A    between atoms: N_19  and  C2_25 
REMARK    7  A    between atoms: N_19  and  S1_28 
REMARK    8  A    between atoms: C2_20  and  O2_22 
ROOT
ATOM      1  O4  SGN d   1     -38.757  27.804 -31.550  0.00  0.00    -0.326 OA
ENDROOT
BRANCH   1   2
ATOM      2  C1  IDS d   2     -39.819  27.358 -32.405  0.00  0.00     0.268 C 
ATOM      3  C2  IDS d   2     -39.239  26.442 -33.473  0.00  0.00     0.224 C 
ATOM      4  C3  IDS d   2     -40.361  25.629 -34.097  0.00  0.00     0.189 C 
ATOM      5  C4  IDS d   2     -40.925  24.699 -33.036  0.00  0.00     0.077 C 
ATOM      6  O3  IDS d   2     -39.837  24.849 -35.183  0.00  0.00    -0.221 OA
ATOM      7  C5  IDS d   2     -40.603  25.259 -31.659  0.00  0.00     0.207 C 
ATOM      8  O5  IDS d   2     -40.837  26.674 -31.656  0.00  0.00    -0.320 OA
ATOM      9  O2  IDS d   2     -38.559  27.226 -34.464  0.00  0.00    -0.233 OA
ATOM     10  S   IDS d   2     -37.149  27.465 -34.343  0.00  0.00     0.252 S 
ATOM     11  O3S IDS d   2     -36.425  26.134 -34.128  0.00  0.00    -0.572 OA
ATOM     12  O1S IDS d   2     -36.633  28.125 -35.623  0.00  0.00    -0.572 OA
ATOM     13  O2S IDS d   2     -36.885  28.387 -33.152  0.00  0.00    -0.572 OA
ATOM     14  C6  IDS d   2     -41.506  24.592 -30.619  0.00  0.00     0.214 C 
ATOM     15  O61 IDS d   2     -42.622  25.115 -30.423  0.00  0.00    -0.646 OA
ATOM     16  O62 IDS d   2     -41.068  23.560 -30.064  0.00  0.00    -0.646 OA
ENDBRANCH 1 2
BRANCH   1  17
ATOM     17  C4  SGN d   1     -39.219  28.812 -30.638  0.00  0.00     0.180 C 
ATOM     18  C3  SGN d   1     -38.534  28.615 -29.295  0.00  0.00     0.210 C 
ATOM     19  O3  SGN d   1     -38.968  27.374 -28.719  0.00  0.00    -0.218 OA
ATOM     20  C2  SGN d   1     -38.891  29.759 -28.360  0.00  0.00     0.210 C 
ATOM     21  C1  SGN d   1     -38.549  31.079 -29.031  0.00  0.00     0.295 C 
ATOM     22  O1  SGN d   1     -37.142  31.124 -29.314  0.00  0.00    -0.188 OA
ATOM     23  O5  SGN d   1     -39.290  31.201 -30.254  0.00  0.00    -0.325 OA
ATOM     24  C5  SGN d   1     -38.877  30.188 -31.185  0.00  0.00     0.181 C 
ATOM     25  N   SGN d   1     -38.181  29.612 -27.080  0.00  0.00    -0.162 NA
ATOM     26  S1  SGN d   1     -38.290  30.986 -26.208  0.00  0.00     0.227 S 
ATOM     27  O2S SGN d   1     -37.286  32.014 -26.733  0.00  0.00    -0.577 OA
ATOM     28  O3S SGN d   1     -39.710  31.542 -26.319  0.00  0.00    -0.577 OA
ATOM     29  O1S SGN d   1     -37.980  30.681 -24.741  0.00  0.00    -0.577 OA
ATOM     30  C6  SGN d   1     -39.583  30.405 -32.512  0.00  0.00     0.214 C 
ATOM     31  O6  SGN d   1     -39.259  31.702 -33.022  0.00  0.00    -0.218 OA
ENDBRANCH   1  17
TORSDOF 8
ENDMDL
MODEL 24
REMARK VINA RESULT:      -2.6      4.498      7.434
REMARK  8 active torsions:
REMARK  status: ('A' for Active; 'I' for Inactive)
REMARK    1  A    between atoms: C6_1  and  C5_27 
REMARK    2  A    between atoms: C6_4  and  C5_23 
REMARK    3  A    between atoms: C1_7  and  O1_9 
REMARK    4  A    between atoms: O1_9  and  C4_31 
REMARK    5  A    between atoms: S_13  and  O2_22 
REMARK    6  A    between atoms: N_19  and  C2_25 
REMARK    7  A    between atoms: N_19  and  S1_28 
REMARK    8  A    between atoms: C2_20  and  O2_22 
ROOT
ATOM      1  O4  SGN d   1     -38.357  30.381 -31.364  0.00  0.00    -0.326 OA
ENDROOT
BRANCH   1   2
ATOM      2  C1  IDS d   2     -39.178  29.319 -31.868  0.00  0.00     0.268 C 
ATOM      3  C2  IDS d   2     -40.166  29.893 -32.871  0.00  0.00     0.224 C 
ATOM      4  C3  IDS d   2     -40.729  28.766 -33.721  0.00  0.00     0.189 C 
ATOM      5  C4  IDS d   2     -39.599  28.189 -34.558  0.00  0.00     0.077 C 
ATOM      6  O3  IDS d   2     -41.746  29.287 -34.590  0.00  0.00    -0.221 OA
ATOM      7  C5  IDS d   2     -38.270  28.511 -33.892  0.00  0.00     0.207 C 
ATOM      8  O5  IDS d   2     -38.381  28.291 -32.479  0.00  0.00    -0.320 OA
ATOM      9  O2  IDS d   2     -41.214  30.585 -32.175  0.00  0.00    -0.233 OA
ATOM     10  S   IDS d   2     -41.106  31.997 -31.941  0.00  0.00     0.252 S 
ATOM     11  O3S IDS d   2     -40.782  32.707 -33.257  0.00  0.00    -0.572 OA
ATOM     12  O1S IDS d   2     -42.432  32.524 -31.390  0.00  0.00    -0.572 OA
ATOM     13  O2S IDS d   2     -39.992  32.265 -30.929  0.00  0.00    -0.572 OA
ATOM     14  C6  IDS d   2     -37.184  27.598 -34.466  0.00  0.00     0.214 C 
ATOM     15  O61 IDS d   2     -37.036  26.486 -33.918  0.00  0.00    -0.646 OA
ATOM     16  O62 IDS d   2     -36.546  28.024 -35.454  0.00  0.00    -0.646 OA
ENDBRANCH 1 2
BRANCH   1  17
ATOM     17  C4  SGN d   1     -37.532  29.927 -30.281  0.00  0.00     0.180 C 
ATOM     18  C3  SGN d   1     -36.150  30.544 -30.417  0.00  0.00     0.210 C 
ATOM     19  O3  SGN d   1     -35.516  30.031 -31.599  0.00  0.00    -0.218 OA
ATOM     20  C2  SGN d   1     -35.306  30.198 -29.201  0.00  0.00     0.210 C 
ATOM     21  C1  SGN d   1     -36.044  30.627 -27.943  0.00  0.00     0.295 C 
ATOM     22  O1  SGN d   1     -36.265  32.046 -27.976  0.00  0.00    -0.188 OA
ATOM     23  O5  SGN d   1     -37.305  29.946 -27.870  0.00  0.00    -0.325 OA
ATOM     24  C5  SGN d   1     -38.149  30.352 -28.958  0.00  0.00     0.181 C 
ATOM     25  N   SGN d   1     -33.989  30.847 -29.293  0.00  0.00    -0.162 NA
ATOM     26  S1  SGN d   1     -33.211  30.762 -27.862  0.00  0.00     0.227 S 
ATOM     27  O2S SGN d   1     -33.755  31.832 -26.913  0.00  0.00    -0.577 OA
ATOM     28  O3S SGN d   1     -33.422  29.374 -27.255  0.00  0.00    -0.577 OA
ATOM     29  O1S SGN d   1     -31.716  30.995 -28.083  0.00  0.00    -0.577 OA
ATOM     30  C6  SGN d   1     -39.519  29.714 -28.799  0.00  0.00     0.214 C 
ATOM     31  O6  SGN d   1     -40.095  30.117 -27.553  0.00  0.00    -0.218 OA
ENDBRANCH   1  17
TORSDOF 8
ENDMDL
MODEL 25
REMARK VINA RESULT:      -2.6      2.823      4.623
REMARK  8 active torsions:
REMARK  status: ('A' for Active; 'I' for Inactive)
REMARK    1  A    between atoms: C6_1  and  C5_27 
REMARK    2  A    between atoms: C6_4  and  C5_23 
REMARK    3  A    between atoms: C1_7  and  O1_9 
REMARK    4  A    between atoms: O1_9  and  C4_31 
REMARK    5  A    between atoms: S_13  and  O2_22 
REMARK    6  A    between atoms: N_19  and  C2_25 
REMARK    7  A    between atoms: N_19  and  S1_28 
REMARK    8  A    between atoms: C2_20  and  O2_22 
ROOT
ATOM      1  O4  SGN d   1     -38.439  29.512 -29.898  0.00  0.00    -0.326 OA
ENDROOT
BRANCH   1   2
ATOM      2  C1  IDS d   2     -37.351  30.441 -29.804  0.00  0.00     0.268 C 
ATOM      3  C2  IDS d   2     -37.518  31.270 -28.540  0.00  0.00     0.224 C 
ATOM      4  C3  IDS d   2     -36.194  31.930 -28.195  0.00  0.00     0.189 C 
ATOM      5  C4  IDS d   2     -35.199  30.841 -27.829  0.00  0.00     0.077 C 
ATOM      6  O3  IDS d   2     -36.376  32.805 -27.071  0.00  0.00    -0.221 OA
ATOM      7  C5  IDS d   2     -35.648  29.526 -28.446  0.00  0.00     0.207 C 
ATOM      8  O5  IDS d   2     -36.085  29.759 -29.793  0.00  0.00    -0.320 OA
ATOM      9  O2  IDS d   2     -38.546  32.253 -28.740  0.00  0.00    -0.233 OA
ATOM     10  S   IDS d   2     -39.898  31.962 -28.357  0.00  0.00     0.252 S 
ATOM     11  O3S IDS d   2     -39.919  31.456 -26.913  0.00  0.00    -0.572 OA
ATOM     12  O1S IDS d   2     -40.742  33.233 -28.465  0.00  0.00    -0.572 OA
ATOM     13  O2S IDS d   2     -40.473  30.889 -29.283  0.00  0.00    -0.572 OA
ATOM     14  C6  IDS d   2     -34.474  28.546 -28.456  0.00  0.00     0.214 C 
ATOM     15  O61 IDS d   2     -33.708  28.592 -29.440  0.00  0.00    -0.646 OA
ATOM     16  O62 IDS d   2     -34.355  27.791 -27.465  0.00  0.00    -0.646 OA
ENDBRANCH 1 2
BRANCH   1  17
ATOM     17  C4  SGN d   1     -38.294  28.661 -31.045  0.00  0.00     0.180 C 
ATOM     18  C3  SGN d   1     -38.450  27.213 -30.610  0.00  0.00     0.210 C 
ATOM     19  O3  SGN d   1     -37.358  26.856 -29.750  0.00  0.00    -0.218 OA
ATOM     20  C2  SGN d   1     -38.452  26.305 -31.829  0.00  0.00     0.210 C 
ATOM     21  C1  SGN d   1     -39.527  26.770 -32.798  0.00  0.00     0.295 C 
ATOM     22  O1  SGN d   1     -40.811  26.703 -32.159  0.00  0.00    -0.188 OA
ATOM     23  O5  SGN d   1     -39.259  28.122 -33.199  0.00  0.00    -0.325 OA
ATOM     24  C5  SGN d   1     -39.364  29.002 -32.069  0.00  0.00     0.181 C 
ATOM     25  N   SGN d   1     -38.669  24.908 -31.423  0.00  0.00    -0.162 NA
ATOM     26  S1  SGN d   1     -39.005  23.983 -32.724  0.00  0.00     0.227 S 
ATOM     27  O2S SGN d   1     -40.468  24.171 -33.130  0.00  0.00    -0.577 OA
ATOM     28  O3S SGN d   1     -38.088  24.387 -33.880  0.00  0.00    -0.577 OA
ATOM     29  O1S SGN d   1     -38.761  22.513 -32.377  0.00  0.00    -0.577 OA
ATOM     30  C6  SGN d   1     -39.196  30.439 -32.533  0.00  0.00     0.214 C 
ATOM     31  O6  SGN d   1     -40.205  30.754 -33.497  0.00  0.00    -0.218 OA
ENDBRANCH   1  17
TORSDOF 8
ENDMDL
MODEL 26
REMARK VINA RESULT:      -2.6      4.075      7.215
REMARK  8 active torsions:
REMARK  status: ('A' for Active; 'I' for Inactive)
REMARK    1  A    between atoms: C6_1  and  C5_27 
REMARK    2  A    between atoms: C6_4  and  C5_23 
REMARK    3  A    between atoms: C1_7  and  O1_9 
REMARK    4  A    between atoms: O1_9  and  C4_31 
REMARK    5  A    between atoms: S_13  and  O2_22 
REMARK    6  A    between atoms: N_19  and  C2_25 
REMARK    7  A    between atoms: N_19  and  S1_28 
REMARK    8  A    between atoms: C2_20  and  O2_22 
ROOT
ATOM      1  O4  SGN d   1     -36.761  30.495 -28.444  0.00  0.00    -0.326 OA
ENDROOT
BRANCH   1   2
ATOM      2  C1  IDS d   2     -36.328  30.159 -27.118  0.00  0.00     0.268 C 
ATOM      3  C2  IDS d   2     -36.607  31.336 -26.196  0.00  0.00     0.224 C 
ATOM      4  C3  IDS d   2     -36.572  30.860 -24.753  0.00  0.00     0.189 C 
ATOM      5  C4  IDS d   2     -37.729  29.899 -24.538  0.00  0.00     0.077 C 
ATOM      6  O3  IDS d   2     -36.719  31.987 -23.876  0.00  0.00    -0.221 OA
ATOM      7  C5  IDS d   2     -38.157  29.324 -25.879  0.00  0.00     0.207 C 
ATOM      8  O5  IDS d   2     -36.991  28.977 -26.639  0.00  0.00    -0.320 OA
ATOM      9  O2  IDS d   2     -35.635  32.367 -26.421  0.00  0.00    -0.233 OA
ATOM     10  S   IDS d   2     -35.918  33.426 -27.348  0.00  0.00     0.252 S 
ATOM     11  O3S IDS d   2     -37.280  34.041 -27.017  0.00  0.00    -0.572 OA
ATOM     12  O1S IDS d   2     -34.833  34.500 -27.240  0.00  0.00    -0.572 OA
ATOM     13  O2S IDS d   2     -35.942  32.869 -28.772  0.00  0.00    -0.572 OA
ATOM     14  C6  IDS d   2     -39.002  28.070 -25.644  0.00  0.00     0.214 C 
ATOM     15  O61 IDS d   2     -38.387  26.989 -25.527  0.00  0.00    -0.646 OA
ATOM     16  O62 IDS d   2     -40.240  28.226 -25.561  0.00  0.00    -0.646 OA
ENDBRANCH 1 2
BRANCH   1  17
ATOM     17  C4  SGN d   1     -36.404  29.467 -29.380  0.00  0.00     0.180 C 
ATOM     18  C3  SGN d   1     -37.524  29.310 -30.395  0.00  0.00     0.210 C 
ATOM     19  O3  SGN d   1     -38.696  28.811 -29.734  0.00  0.00    -0.218 OA
ATOM     20  C2  SGN d   1     -37.104  28.335 -31.483  0.00  0.00     0.210 C 
ATOM     21  C1  SGN d   1     -35.791  28.801 -32.090  0.00  0.00     0.295 C 
ATOM     22  O1  SGN d   1     -35.964  30.104 -32.667  0.00  0.00    -0.188 OA
ATOM     23  O5  SGN d   1     -34.782  28.856 -31.071  0.00  0.00    -0.325 OA
ATOM     24  C5  SGN d   1     -35.120  29.855 -30.096  0.00  0.00     0.181 C 
ATOM     25  N   SGN d   1     -38.155  28.228 -32.505  0.00  0.00    -0.162 NA
ATOM     26  S1  SGN d   1     -37.588  27.458 -33.827  0.00  0.00     0.227 S 
ATOM     27  O2S SGN d   1     -36.759  28.427 -34.674  0.00  0.00    -0.577 OA
ATOM     28  O3S SGN d   1     -36.720  26.277 -33.389  0.00  0.00    -0.577 OA
ATOM     29  O1S SGN d   1     -38.765  26.941 -34.656  0.00  0.00    -0.577 OA
ATOM     30  C6  SGN d   1     -33.988  29.983 -29.092  0.00  0.00     0.214 C 
ATOM     31  O6  SGN d   1     -32.783  30.348 -29.771  0.00  0.00    -0.218 OA
ENDBRANCH   1  17
TORSDOF 8
ENDMDL
MODEL 27
REMARK VINA RESULT:      -2.6      3.329      5.577
REMARK  8 active torsions:
REMARK  status: ('A' for Active; 'I' for Inactive)
REMARK    1  A    between atoms: C6_1  and  C5_27 
REMARK    2  A    between atoms: C6_4  and  C5_23 
REMARK    3  A    between atoms: C1_7  and  O1_9 
REMARK    4  A    between atoms: O1_9  and  C4_31 
REMARK    5  A    between atoms: S_13  and  O2_22 
REMARK    6  A    between atoms: N_19  and  C2_25 
REMARK    7  A    between atoms: N_19  and  S1_28 
REMARK    8  A    between atoms: C2_20  and  O2_22 
ROOT
ATOM      1  O4  SGN d   1     -38.224  28.372 -30.837  0.00  0.00    -0.326 OA
ENDROOT
BRANCH   1   2
ATOM      2  C1  IDS d   2     -38.141  27.683 -29.582  0.00  0.00     0.268 C 
ATOM      3  C2  IDS d   2     -37.315  28.518 -28.616  0.00  0.00     0.224 C 
ATOM      4  C3  IDS d   2     -37.576  28.045 -27.196  0.00  0.00     0.189 C 
ATOM      5  C4  IDS d   2     -39.024  28.346 -26.849  0.00  0.00     0.077 C 
ATOM      6  O3  IDS d   2     -36.713  28.752 -26.292  0.00  0.00    -0.221 OA
ATOM      7  C5  IDS d   2     -39.828  28.477 -28.133  0.00  0.00     0.207 C 
ATOM      8  O5  IDS d   2     -39.448  27.432 -29.039  0.00  0.00    -0.320 OA
ATOM      9  O2  IDS d   2     -35.924  28.407 -28.948  0.00  0.00    -0.233 OA
ATOM     10  S   IDS d   2     -35.316  29.375 -29.817  0.00  0.00     0.252 S 
ATOM     11  O3S IDS d   2     -35.631  30.783 -29.309  0.00  0.00    -0.572 OA
ATOM     12  O1S IDS d   2     -33.801  29.164 -29.833  0.00  0.00    -0.572 OA
ATOM     13  O2S IDS d   2     -35.867  29.208 -31.234  0.00  0.00    -0.572 OA
ATOM     14  C6  IDS d   2     -41.319  28.352 -27.810  0.00  0.00     0.214 C 
ATOM     15  O61 IDS d   2     -41.796  27.199 -27.786  0.00  0.00    -0.646 OA
ATOM     16  O62 IDS d   2     -41.939  29.411 -27.569  0.00  0.00    -0.646 OA
ENDBRANCH 1 2
BRANCH   1  17
ATOM     17  C4  SGN d   1     -38.968  27.606 -31.798  0.00  0.00     0.180 C 
ATOM     18  C3  SGN d   1     -39.734  28.557 -32.703  0.00  0.00     0.210 C 
ATOM     19  O3  SGN d   1     -40.731  29.244 -31.932  0.00  0.00    -0.218 OA
ATOM     20  C2  SGN d   1     -40.407  27.776 -33.820  0.00  0.00     0.210 C 
ATOM     21  C1  SGN d   1     -39.363  26.948 -34.551  0.00  0.00     0.295 C 
ATOM     22  O1  SGN d   1     -38.369  27.817 -35.115  0.00  0.00    -0.188 OA
ATOM     23  O5  SGN d   1     -38.741  26.040 -33.630  0.00  0.00    -0.325 OA
ATOM     24  C5  SGN d   1     -38.011  26.771 -32.633  0.00  0.00     0.181 C 
ATOM     25  N   SGN d   1     -41.097  28.695 -34.739  0.00  0.00    -0.162 NA
ATOM     26  S1  SGN d   1     -41.531  27.915 -36.104  0.00  0.00     0.227 S 
ATOM     27  O2S SGN d   1     -40.320  27.778 -37.030  0.00  0.00    -0.577 OA
ATOM     28  O3S SGN d   1     -42.068  26.529 -35.744  0.00  0.00    -0.577 OA
ATOM     29  O1S SGN d   1     -42.624  28.712 -36.818  0.00  0.00    -0.577 OA
ATOM     30  C6  SGN d   1     -37.263  25.795 -31.740  0.00  0.00     0.214 C 
ATOM     31  O6  SGN d   1     -36.365  25.012 -32.530  0.00  0.00    -0.218 OA
ENDBRANCH   1  17
TORSDOF 8
ENDMDL
MODEL 28
REMARK VINA RESULT:      -2.6      2.543      4.778
REMARK  8 active torsions:
REMARK  status: ('A' for Active; 'I' for Inactive)
REMARK    1  A    between atoms: C6_1  and  C5_27 
REMARK    2  A    between atoms: C6_4  and  C5_23 
REMARK    3  A    between atoms: C1_7  and  O1_9 
REMARK    4  A    between atoms: O1_9  and  C4_31 
REMARK    5  A    between atoms: S_13  and  O2_22 
REMARK    6  A    between atoms: N_19  and  C2_25 
REMARK    7  A    between atoms: N_19  and  S1_28 
REMARK    8  A    between atoms: C2_20  and  O2_22 
ROOT
ATOM      1  O4  SGN d   1     -40.003  27.929 -31.926  0.00  0.00    -0.326 OA
ENDROOT
BRANCH   1   2
ATOM      2  C1  IDS d   2     -39.073  28.847 -31.335  0.00  0.00     0.268 C 
ATOM      3  C2  IDS d   2     -39.829  30.076 -30.856  0.00  0.00     0.224 C 
ATOM      4  C3  IDS d   2     -38.969  30.838 -29.863  0.00  0.00     0.189 C 
ATOM      5  C4  IDS d   2     -38.786  29.974 -28.627  0.00  0.00     0.077 C 
ATOM      6  O3  IDS d   2     -39.631  32.059 -29.496  0.00  0.00    -0.221 OA
ATOM      7  C5  IDS d   2     -39.014  28.517 -28.998  0.00  0.00     0.207 C 
ATOM      8  O5  IDS d   2     -38.362  28.237 -30.244  0.00  0.00    -0.320 OA
ATOM      9  O2  IDS d   2     -40.172  30.901 -31.980  0.00  0.00    -0.233 OA
ATOM     10  S   IDS d   2     -41.448  30.746 -32.618  0.00  0.00     0.252 S 
ATOM     11  O3S IDS d   2     -42.554  30.799 -31.563  0.00  0.00    -0.572 OA
ATOM     12  O1S IDS d   2     -41.652  31.877 -33.629  0.00  0.00    -0.572 OA
ATOM     13  O2S IDS d   2     -41.498  29.401 -33.344  0.00  0.00    -0.572 OA
ATOM     14  C6  IDS d   2     -38.428  27.620 -27.905  0.00  0.00     0.214 C 
ATOM     15  O61 IDS d   2     -37.221  27.319 -28.010  0.00  0.00    -0.646 OA
ATOM     16  O62 IDS d   2     -39.195  27.279 -26.977  0.00  0.00    -0.646 OA
ENDBRANCH 1 2
BRANCH   1  17
ATOM     17  C4  SGN d   1     -39.458  26.602 -31.975  0.00  0.00     0.180 C 
ATOM     18  C3  SGN d   1     -40.570  25.600 -31.711  0.00  0.00     0.210 C 
ATOM     19  O3  SGN d   1     -41.035  25.753 -30.362  0.00  0.00    -0.218 OA
ATOM     20  C2  SGN d   1     -40.048  24.185 -31.908  0.00  0.00     0.210 C 
ATOM     21  C1  SGN d   1     -39.437  24.067 -33.294  0.00  0.00     0.295 C 
ATOM     22  O1  SGN d   1     -40.439  24.342 -34.286  0.00  0.00    -0.188 OA
ATOM     23  O5  SGN d   1     -38.359  25.005 -33.426  0.00  0.00    -0.325 OA
ATOM     24  C5  SGN d   1     -38.862  26.348 -33.351  0.00  0.00     0.181 C 
ATOM     25  N   SGN d   1     -41.134  23.211 -31.719  0.00  0.00    -0.162 NA
ATOM     26  S1  SGN d   1     -40.676  21.738 -32.249  0.00  0.00     0.227 S 
ATOM     27  O2S SGN d   1     -40.787  21.679 -33.774  0.00  0.00    -0.577 OA
ATOM     28  O3S SGN d   1     -39.230  21.476 -31.823  0.00  0.00    -0.577 OA
ATOM     29  O1S SGN d   1     -41.585  20.673 -31.634  0.00  0.00    -0.577 OA
ATOM     30  C6  SGN d   1     -37.729  27.326 -33.610  0.00  0.00     0.214 C 
ATOM     31  O6  SGN d   1     -37.172  27.082 -34.905  0.00  0.00    -0.218 OA
ENDBRANCH   1  17
TORSDOF 8
ENDMDL
MODEL 29
REMARK VINA RESULT:      -2.6      3.431      7.125
REMARK  8 active torsions:
REMARK  status: ('A' for Active; 'I' for Inactive)
REMARK    1  A    between atoms: C6_1  and  C5_27 
REMARK    2  A    between atoms: C6_4  and  C5_23 
REMARK    3  A    between atoms: C1_7  and  O1_9 
REMARK    4  A    between atoms: O1_9  and  C4_31 
REMARK    5  A    between atoms: S_13  and  O2_22 
REMARK    6  A    between atoms: N_19  and  C2_25 
REMARK    7  A    between atoms: N_19  and  S1_28 
REMARK    8  A    between atoms: C2_20  and  O2_22 
ROOT
ATOM      1  O4  SGN d   1     -39.771  26.255 -32.980  0.00  0.00    -0.326 OA
ENDROOT
BRANCH   1   2
ATOM      2  C1  IDS d   2     -39.505  25.648 -34.252  0.00  0.00     0.268 C 
ATOM      3  C2  IDS d   2     -40.376  24.411 -34.399  0.00  0.00     0.224 C 
ATOM      4  C3  IDS d   2     -40.441  24.015 -35.864  0.00  0.00     0.189 C 
ATOM      5  C4  IDS d   2     -41.171  25.110 -36.624  0.00  0.00     0.077 C 
ATOM      6  O3  IDS d   2     -41.167  22.782 -35.994  0.00  0.00    -0.221 OA
ATOM      7  C5  IDS d   2     -41.086  26.407 -35.834  0.00  0.00     0.207 C 
ATOM      8  O5  IDS d   2     -39.753  26.568 -35.329  0.00  0.00    -0.320 OA
ATOM      9  O2  IDS d   2     -39.840  23.345 -33.601  0.00  0.00    -0.233 OA
ATOM     10  S   IDS d   2     -40.317  23.142 -32.263  0.00  0.00     0.252 S 
ATOM     11  O3S IDS d   2     -41.846  23.082 -32.272  0.00  0.00    -0.572 OA
ATOM     12  O1S IDS d   2     -39.758  21.828 -31.717  0.00  0.00    -0.572 OA
ATOM     13  O2S IDS d   2     -39.857  24.299 -31.375  0.00  0.00    -0.572 OA
ATOM     14  C6  IDS d   2     -41.426  27.581 -36.754  0.00  0.00     0.214 C 
ATOM     15  O61 IDS d   2     -40.485  28.075 -37.410  0.00  0.00    -0.646 OA
ATOM     16  O62 IDS d   2     -42.624  27.941 -36.799  0.00  0.00    -0.646 OA
ENDBRANCH 1 2
BRANCH   1  17
ATOM     17  C4  SGN d   1     -39.487  27.662 -33.010  0.00  0.00     0.180 C 
ATOM     18  C3  SGN d   1     -40.607  28.409 -32.306  0.00  0.00     0.210 C 
ATOM     19  O3  SGN d   1     -41.820  28.265 -33.059  0.00  0.00    -0.218 OA
ATOM     20  C2  SGN d   1     -40.254  29.883 -32.192  0.00  0.00     0.210 C 
ATOM     21  C1  SGN d   1     -38.904  30.023 -31.508  0.00  0.00     0.295 C 
ATOM     22  O1  SGN d   1     -38.970  29.452 -30.193  0.00  0.00    -0.188 OA
ATOM     23  O5  SGN d   1     -37.903  29.341 -32.279  0.00  0.00    -0.325 OA
ATOM     24  C5  SGN d   1     -38.171  27.931 -32.298  0.00  0.00     0.181 C 
ATOM     25  N   SGN d   1     -41.302  30.603 -31.452  0.00  0.00    -0.162 NA
ATOM     26  S1  SGN d   1     -40.786  32.093 -31.037  0.00  0.00     0.227 S 
ATOM     27  O2S SGN d   1     -39.877  32.002 -29.809  0.00  0.00    -0.577 OA
ATOM     28  O3S SGN d   1     -40.016  32.704 -32.208  0.00  0.00    -0.577 OA
ATOM     29  O1S SGN d   1     -41.992  32.975 -30.709  0.00  0.00    -0.577 OA
ATOM     30  C6  SGN d   1     -37.040  27.213 -33.015  0.00  0.00     0.214 C 
ATOM     31  O6  SGN d   1     -35.805  27.469 -32.341  0.00  0.00    -0.218 OA
ENDBRANCH   1  17
TORSDOF 8
ENDMDL
MODEL 30
REMARK VINA RESULT:      -2.6      2.421      4.954
REMARK  8 active torsions:
REMARK  status: ('A' for Active; 'I' for Inactive)
REMARK    1  A    between atoms: C6_1  and  C5_27 
REMARK    2  A    between atoms: C6_4  and  C5_23 
REMARK    3  A    between atoms: C1_7  and  O1_9 
REMARK    4  A    between atoms: O1_9  and  C4_31 
REMARK    5  A    between atoms: S_13  and  O2_22 
REMARK    6  A    between atoms: N_19  and  C2_25 
REMARK    7  A    between atoms: N_19  and  S1_28 
REMARK    8  A    between atoms: C2_20  and  O2_22 
ROOT
ATOM      1  O4  SGN d   1     -40.169  26.115 -32.008  0.00  0.00    -0.326 OA
ENDROOT
BRANCH   1   2
ATOM      2  C1  IDS d   2     -39.090  27.039 -31.806  0.00  0.00     0.268 C 
ATOM      3  C2  IDS d   2     -39.461  28.373 -32.435  0.00  0.00     0.224 C 
ATOM      4  C3  IDS d   2     -38.562  29.460 -31.870  0.00  0.00     0.189 C 
ATOM      5  C4  IDS d   2     -38.872  29.615 -30.390  0.00  0.00     0.077 C 
ATOM      6  O3  IDS d   2     -38.830  30.699 -32.545  0.00  0.00    -0.221 OA
ATOM      7  C5  IDS d   2     -39.511  28.334 -29.877  0.00  0.00     0.207 C 
ATOM      8  O5  IDS d   2     -38.803  27.205 -30.408  0.00  0.00    -0.320 OA
ATOM      9  O2  IDS d   2     -39.330  28.287 -33.862  0.00  0.00    -0.233 OA
ATOM     10  S   IDS d   2     -40.468  27.944 -34.666  0.00  0.00     0.252 S 
ATOM     11  O3S IDS d   2     -41.645  28.849 -34.293  0.00  0.00    -0.572 OA
ATOM     12  O1S IDS d   2     -40.125  28.137 -36.144  0.00  0.00    -0.572 OA
ATOM     13  O2S IDS d   2     -40.849  26.484 -34.418  0.00  0.00    -0.572 OA
ATOM     14  C6  IDS d   2     -39.435  28.309 -28.349  0.00  0.00     0.214 C 
ATOM     15  O61 IDS d   2     -38.396  27.836 -27.844  0.00  0.00    -0.646 OA
ATOM     16  O62 IDS d   2     -40.406  28.788 -27.723  0.00  0.00    -0.646 OA
ENDBRANCH 1 2
BRANCH   1  17
ATOM     17  C4  SGN d   1     -39.787  24.785 -31.624  0.00  0.00     0.180 C 
ATOM     18  C3  SGN d   1     -41.019  24.034 -31.146  0.00  0.00     0.210 C 
ATOM     19  O3  SGN d   1     -41.502  24.638 -29.937  0.00  0.00    -0.218 OA
ATOM     20  C2  SGN d   1     -40.667  22.580 -30.879  0.00  0.00     0.210 C 
ATOM     21  C1  SGN d   1     -40.034  21.982 -32.124  0.00  0.00     0.295 C 
ATOM     22  O1  SGN d   1     -40.965  22.049 -33.216  0.00  0.00    -0.188 OA
ATOM     23  O5  SGN d   1     -38.847  22.716 -32.460  0.00  0.00    -0.325 OA
ATOM     24  C5  SGN d   1     -39.186  24.064 -32.820  0.00  0.00     0.181 C 
ATOM     25  N   SGN d   1     -41.868  21.830 -30.479  0.00  0.00    -0.162 NA
ATOM     26  S1  SGN d   1     -41.576  20.226 -30.516  0.00  0.00     0.227 S 
ATOM     27  O2S SGN d   1     -41.648  19.719 -31.958  0.00  0.00    -0.577 OA
ATOM     28  O3S SGN d   1     -40.186  19.953 -29.939  0.00  0.00    -0.577 OA
ATOM     29  O1S SGN d   1     -42.625  19.500 -29.672  0.00  0.00    -0.577 OA
ATOM     30  C6  SGN d   1     -37.935  24.790 -33.285  0.00  0.00     0.214 C 
ATOM     31  O6  SGN d   1     -37.373  24.108 -34.410  0.00  0.00    -0.218 OA
ENDBRANCH   1  17
TORSDOF 8
ENDMDL
MODEL 31
REMARK VINA RESULT:      -2.5      3.072      6.984
REMARK  8 active torsions:
REMARK  status: ('A' for Active; 'I' for Inactive)
REMARK    1  A    between atoms: C6_1  and  C5_27 
REMARK    2  A    between atoms: C6_4  and  C5_23 
REMARK    3  A    between atoms: C1_7  and  O1_9 
REMARK    4  A    between atoms: O1_9  and  C4_31 
REMARK    5  A    between atoms: S_13  and  O2_22 
REMARK    6  A    between atoms: N_19  and  C2_25 
REMARK    7  A    between atoms: N_19  and  S1_28 
REMARK    8  A    between atoms: C2_20  and  O2_22 
ROOT
ATOM      1  O4  SGN d   1     -38.478  27.386 -31.009  0.00  0.00    -0.326 OA
ENDROOT
BRANCH   1   2
ATOM      2  C1  IDS d   2     -38.534  27.935 -32.333  0.00  0.00     0.268 C 
ATOM      3  C2  IDS d   2     -39.202  26.928 -33.256  0.00  0.00     0.224 C 
ATOM      4  C3  IDS d   2     -39.661  27.635 -34.520  0.00  0.00     0.189 C 
ATOM      5  C4  IDS d   2     -40.754  28.622 -34.145  0.00  0.00     0.077 C 
ATOM      6  O3  IDS d   2     -40.189  26.669 -35.442  0.00  0.00    -0.221 OA
ATOM      7  C5  IDS d   2     -40.629  28.970 -32.670  0.00  0.00     0.207 C 
ATOM      8  O5  IDS d   2     -39.247  29.182 -32.349  0.00  0.00    -0.320 OA
ATOM      9  O2  IDS d   2     -38.283  25.869 -33.563  0.00  0.00    -0.233 OA
ATOM     10  S   IDS d   2     -38.278  24.673 -32.770  0.00  0.00     0.252 S 
ATOM     11  O3S IDS d   2     -39.704  24.126 -32.667  0.00  0.00    -0.572 OA
ATOM     12  O1S IDS d   2     -37.377  23.628 -33.431  0.00  0.00    -0.572 OA
ATOM     13  O2S IDS d   2     -37.749  24.988 -31.370  0.00  0.00    -0.572 OA
ATOM     14  C6  IDS d   2     -41.420  30.248 -32.384  0.00  0.00     0.214 C 
ATOM     15  O61 IDS d   2     -40.822  31.331 -32.553  0.00  0.00    -0.646 OA
ATOM     16  O62 IDS d   2     -42.611  30.113 -32.029  0.00  0.00    -0.646 OA
ENDBRANCH 1 2
BRANCH   1  17
ATOM     17  C4  SGN d   1     -38.140  28.395 -30.046  0.00  0.00     0.180 C 
ATOM     18  C3  SGN d   1     -38.900  28.125 -28.757  0.00  0.00     0.210 C 
ATOM     19  O3  SGN d   1     -40.305  28.298 -28.991  0.00  0.00    -0.218 OA
ATOM     20  C2  SGN d   1     -38.444  29.091 -27.676  0.00  0.00     0.210 C 
ATOM     21  C1  SGN d   1     -36.934  28.996 -27.525  0.00  0.00     0.295 C 
ATOM     22  O1  SGN d   1     -36.572  27.659 -27.146  0.00  0.00    -0.188 OA
ATOM     23  O5  SGN d   1     -36.305  29.330 -28.771  0.00  0.00    -0.325 OA
ATOM     24  C5  SGN d   1     -36.645  28.357 -29.772  0.00  0.00     0.181 C 
ATOM     25  N   SGN d   1     -39.125  28.793 -26.407  0.00  0.00    -0.162 NA
ATOM     26  S1  SGN d   1     -38.410  29.589 -25.176  0.00  0.00     0.227 S 
ATOM     27  O2S SGN d   1     -37.138  28.852 -24.752  0.00  0.00    -0.577 OA
ATOM     28  O3S SGN d   1     -38.061  31.008 -25.628  0.00  0.00    -0.577 OA
ATOM     29  O1S SGN d   1     -39.373  29.659 -23.990  0.00  0.00    -0.577 OA
ATOM     30  C6  SGN d   1     -35.879  28.658 -31.048  0.00  0.00     0.214 C 
ATOM     31  O6  SGN d   1     -34.473  28.620 -30.784  0.00  0.00    -0.218 OA
ENDBRANCH   1  17
TORSDOF 8
ENDMDL
MODEL 32
REMARK VINA RESULT:      -2.5      3.808      6.168
REMARK  8 active torsions:
REMARK  status: ('A' for Active; 'I' for Inactive)
REMARK    1  A    between atoms: C6_1  and  C5_27 
REMARK    2  A    between atoms: C6_4  and  C5_23 
REMARK    3  A    between atoms: C1_7  and  O1_9 
REMARK    4  A    between atoms: O1_9  and  C4_31 
REMARK    5  A    between atoms: S_13  and  O2_22 
REMARK    6  A    between atoms: N_19  and  C2_25 
REMARK    7  A    between atoms: N_19  and  S1_28 
REMARK    8  A    between atoms: C2_20  and  O2_22 
ROOT
ATOM      1  O4  SGN d   1     -35.398  29.053 -28.244  0.00  0.00    -0.326 OA
ENDROOT
BRANCH   1   2
ATOM      2  C1  IDS d   2     -35.115  30.277 -27.550  0.00  0.00     0.268 C 
ATOM      3  C2  IDS d   2     -34.189  29.978 -26.381  0.00  0.00     0.224 C 
ATOM      4  C3  IDS d   2     -33.539  31.269 -25.915  0.00  0.00     0.189 C 
ATOM      5  C4  IDS d   2     -32.632  31.775 -27.024  0.00  0.00     0.077 C 
ATOM      6  O3  IDS d   2     -32.755  31.011 -24.740  0.00  0.00    -0.221 OA
ATOM      7  C5  IDS d   2     -33.087  31.185 -28.350  0.00  0.00     0.207 C 
ATOM      8  O5  IDS d   2     -34.518  31.246 -28.429  0.00  0.00    -0.320 OA
ATOM      9  O2  IDS d   2     -34.936  29.365 -25.319  0.00  0.00    -0.233 OA
ATOM     10  S   IDS d   2     -35.006  27.934 -25.227  0.00  0.00     0.252 S 
ATOM     11  O3S IDS d   2     -33.592  27.351 -25.291  0.00  0.00    -0.572 OA
ATOM     12  O1S IDS d   2     -35.662  27.541 -23.902  0.00  0.00    -0.572 OA
ATOM     13  O2S IDS d   2     -35.836  27.386 -26.389  0.00  0.00    -0.572 OA
ATOM     14  C6  IDS d   2     -32.480  31.995 -29.497  0.00  0.00     0.214 C 
ATOM     15  O61 IDS d   2     -33.117  32.999 -29.878  0.00  0.00    -0.646 OA
ATOM     16  O62 IDS d   2     -31.380  31.606 -29.949  0.00  0.00    -0.646 OA
ENDBRANCH 1 2
BRANCH   1  17
ATOM     17  C4  SGN d   1     -36.289  29.279 -29.346  0.00  0.00     0.180 C 
ATOM     18  C3  SGN d   1     -35.678  28.689 -30.606  0.00  0.00     0.210 C 
ATOM     19  O3  SGN d   1     -34.489  29.419 -30.943  0.00  0.00    -0.218 OA
ATOM     20  C2  SGN d   1     -36.670  28.781 -31.754  0.00  0.00     0.210 C 
ATOM     21  C1  SGN d   1     -37.975  28.119 -31.342  0.00  0.00     0.295 C 
ATOM     22  O1  SGN d   1     -37.736  26.737 -31.035  0.00  0.00    -0.188 OA
ATOM     23  O5  SGN d   1     -38.506  28.784 -30.185  0.00  0.00    -0.325 OA
ATOM     24  C5  SGN d   1     -37.624  28.607 -29.066  0.00  0.00     0.181 C 
ATOM     25  N   SGN d   1     -36.113  28.152 -32.961  0.00  0.00    -0.162 NA
ATOM     26  S1  SGN d   1     -37.276  27.947 -34.086  0.00  0.00     0.227 S 
ATOM     27  O2S SGN d   1     -38.117  26.716 -33.742  0.00  0.00    -0.577 OA
ATOM     28  O3S SGN d   1     -38.166  29.191 -34.122  0.00  0.00    -0.577 OA
ATOM     29  O1S SGN d   1     -36.627  27.750 -35.457  0.00  0.00    -0.577 OA
ATOM     30  C6  SGN d   1     -38.257  29.213 -27.825  0.00  0.00     0.214 C 
ATOM     31  O6  SGN d   1     -39.512  28.578 -27.567  0.00  0.00    -0.218 OA
ENDBRANCH   1  17
TORSDOF 8
ENDMDL
MODEL 33
REMARK VINA RESULT:      -2.5      3.473      5.365
REMARK  8 active torsions:
REMARK  status: ('A' for Active; 'I' for Inactive)
REMARK    1  A    between atoms: C6_1  and  C5_27 
REMARK    2  A    between atoms: C6_4  and  C5_23 
REMARK    3  A    between atoms: C1_7  and  O1_9 
REMARK    4  A    between atoms: O1_9  and  C4_31 
REMARK    5  A    between atoms: S_13  and  O2_22 
REMARK    6  A    between atoms: N_19  and  C2_25 
REMARK    7  A    between atoms: N_19  and  S1_28 
REMARK    8  A    between atoms: C2_20  and  O2_22 
ROOT
ATOM      1  O4  SGN d   1     -36.479  30.034 -28.336  0.00  0.00    -0.326 OA
ENDROOT
BRANCH   1   2
ATOM      2  C1  IDS d   2     -36.052  31.399 -28.445  0.00  0.00     0.268 C 
ATOM      3  C2  IDS d   2     -35.563  31.873 -27.085  0.00  0.00     0.224 C 
ATOM      4  C3  IDS d   2     -34.721  33.124 -27.265  0.00  0.00     0.189 C 
ATOM      5  C4  IDS d   2     -33.464  32.749 -28.033  0.00  0.00     0.077 C 
ATOM      6  O3  IDS d   2     -34.353  33.641 -25.976  0.00  0.00    -0.221 OA
ATOM      7  C5  IDS d   2     -33.721  31.470 -28.816  0.00  0.00     0.207 C 
ATOM      8  O5  IDS d   2     -35.015  31.543 -29.430  0.00  0.00    -0.320 OA
ATOM      9  O2  IDS d   2     -36.687  32.128 -26.230  0.00  0.00    -0.233 OA
ATOM     10  S   IDS d   2     -37.167  31.098 -25.353  0.00  0.00     0.252 S 
ATOM     11  O3S IDS d   2     -35.997  30.536 -24.542  0.00  0.00    -0.572 OA
ATOM     12  O1S IDS d   2     -38.212  31.685 -24.402  0.00  0.00    -0.572 OA
ATOM     13  O2S IDS d   2     -37.802  29.978 -26.178  0.00  0.00    -0.572 OA
ATOM     14  C6  IDS d   2     -32.652  31.318 -29.899  0.00  0.00     0.214 C 
ATOM     15  O61 IDS d   2     -32.875  31.875 -30.994  0.00  0.00    -0.646 OA
ATOM     16  O62 IDS d   2     -31.624  30.671 -29.597  0.00  0.00    -0.646 OA
ENDBRANCH 1 2
BRANCH   1  17
ATOM     17  C4  SGN d   1     -37.066  29.577 -29.564  0.00  0.00     0.180 C 
ATOM     18  C3  SGN d   1     -36.632  28.143 -29.817  0.00  0.00     0.210 C 
ATOM     19  O3  SGN d   1     -35.217  28.111 -30.054  0.00  0.00    -0.218 OA
ATOM     20  C2  SGN d   1     -37.361  27.588 -31.029  0.00  0.00     0.210 C 
ATOM     21  C1  SGN d   1     -38.859  27.745 -30.827  0.00  0.00     0.295 C 
ATOM     22  O1  SGN d   1     -39.265  27.015 -29.658  0.00  0.00    -0.188 OA
ATOM     23  O5  SGN d   1     -39.179  29.134 -30.661  0.00  0.00    -0.325 OA
ATOM     24  C5  SGN d   1     -38.581  29.638 -29.456  0.00  0.00     0.181 C 
ATOM     25  N   SGN d   1     -36.997  26.179 -31.242  0.00  0.00    -0.162 NA
ATOM     26  S1  SGN d   1     -38.009  25.485 -32.317  0.00  0.00     0.227 S 
ATOM     27  O2S SGN d   1     -39.325  25.119 -31.627  0.00  0.00    -0.577 OA
ATOM     28  O3S SGN d   1     -38.278  26.465 -33.461  0.00  0.00    -0.577 OA
ATOM     29  O1S SGN d   1     -37.363  24.218 -32.878  0.00  0.00    -0.577 OA
ATOM     30  C6  SGN d   1     -39.026  31.073 -29.234  0.00  0.00     0.214 C 
ATOM     31  O6  SGN d   1     -40.452  31.124 -29.134  0.00  0.00    -0.218 OA
ENDBRANCH   1  17
TORSDOF 8
ENDMDL
MODEL 34
REMARK VINA RESULT:      -2.5      2.835      4.323
REMARK  8 active torsions:
REMARK  status: ('A' for Active; 'I' for Inactive)
REMARK    1  A    between atoms: C6_1  and  C5_27 
REMARK    2  A    between atoms: C6_4  and  C5_23 
REMARK    3  A    between atoms: C1_7  and  O1_9 
REMARK    4  A    between atoms: O1_9  and  C4_31 
REMARK    5  A    between atoms: S_13  and  O2_22 
REMARK    6  A    between atoms: N_19  and  C2_25 
REMARK    7  A    between atoms: N_19  and  S1_28 
REMARK    8  A    between atoms: C2_20  and  O2_22 
ROOT
ATOM      1  O4  SGN d   1     -38.536  29.493 -29.305  0.00  0.00    -0.326 OA
ENDROOT
BRANCH   1   2
ATOM      2  C1  IDS d   2     -37.942  30.794 -29.411  0.00  0.00     0.268 C 
ATOM      3  C2  IDS d   2     -37.734  31.356 -28.013  0.00  0.00     0.224 C 
ATOM      4  C3  IDS d   2     -36.734  32.498 -28.077  0.00  0.00     0.189 C 
ATOM      5  C4  IDS d   2     -35.385  31.930 -28.483  0.00  0.00     0.077 C 
ATOM      6  O3  IDS d   2     -36.623  33.107 -26.781  0.00  0.00    -0.221 OA
ATOM      7  C5  IDS d   2     -35.596  30.608 -29.204  0.00  0.00     0.207 C 
ATOM      8  O5  IDS d   2     -36.692  30.738 -30.120  0.00  0.00    -0.320 OA
ATOM      9  O2  IDS d   2     -38.991  31.802 -27.481  0.00  0.00    -0.233 OA
ATOM     10  S   IDS d   2     -39.779  30.916 -26.671  0.00  0.00     0.252 S 
ATOM     11  O3S IDS d   2     -38.905  30.333 -25.558  0.00  0.00    -0.572 OA
ATOM     12  O1S IDS d   2     -40.943  31.692 -26.053  0.00  0.00    -0.572 OA
ATOM     13  O2S IDS d   2     -40.327  29.781 -27.538  0.00  0.00    -0.572 OA
ATOM     14  C6  IDS d   2     -34.327  30.246 -29.978  0.00  0.00     0.214 C 
ATOM     15  O61 IDS d   2     -34.221  30.707 -31.134  0.00  0.00    -0.646 OA
ATOM     16  O62 IDS d   2     -33.481  29.540 -29.386  0.00  0.00    -0.646 OA
ENDBRANCH 1 2
BRANCH   1  17
ATOM     17  C4  SGN d   1     -38.531  28.818 -30.572  0.00  0.00     0.180 C 
ATOM     18  C3  SGN d   1     -38.299  27.334 -30.342  0.00  0.00     0.210 C 
ATOM     19  O3  SGN d   1     -36.977  27.137 -29.818  0.00  0.00    -0.218 OA
ATOM     20  C2  SGN d   1     -38.441  26.579 -31.654  0.00  0.00     0.210 C 
ATOM     21  C1  SGN d   1     -39.794  26.896 -32.269  0.00  0.00     0.295 C 
ATOM     22  O1  SGN d   1     -40.838  26.484 -31.373  0.00  0.00    -0.188 OA
ATOM     23  O5  SGN d   1     -39.894  28.308 -32.507  0.00  0.00    -0.325 OA
ATOM     24  C5  SGN d   1     -39.871  29.022 -31.261  0.00  0.00     0.181 C 
ATOM     25  N   SGN d   1     -38.283  25.134 -31.430  0.00  0.00    -0.162 NA
ATOM     26  S1  SGN d   1     -38.759  24.298 -32.747  0.00  0.00     0.227 S 
ATOM     27  O2S SGN d   1     -40.287  24.203 -32.776  0.00  0.00    -0.577 OA
ATOM     28  O3S SGN d   1     -38.259  25.011 -34.004  0.00  0.00    -0.577 OA
ATOM     29  O1S SGN d   1     -38.166  22.889 -32.695  0.00  0.00    -0.577 OA
ATOM     30  C6  SGN d   1     -40.097  30.501 -31.524  0.00  0.00     0.214 C 
ATOM     31  O6  SGN d   1     -41.358  30.686 -32.173  0.00  0.00    -0.218 OA
ENDBRANCH   1  17
TORSDOF 8
ENDMDL
MODEL 35
REMARK VINA RESULT:      -2.4      3.753      7.725
REMARK  8 active torsions:
REMARK  status: ('A' for Active; 'I' for Inactive)
REMARK    1  A    between atoms: C6_1  and  C5_27 
REMARK    2  A    between atoms: C6_4  and  C5_23 
REMARK    3  A    between atoms: C1_7  and  O1_9 
REMARK    4  A    between atoms: O1_9  and  C4_31 
REMARK    5  A    between atoms: S_13  and  O2_22 
REMARK    6  A    between atoms: N_19  and  C2_25 
REMARK    7  A    between atoms: N_19  and  S1_28 
REMARK    8  A    between atoms: C2_20  and  O2_22 
ROOT
ATOM      1  O4  SGN d   1     -37.704  28.699 -30.389  0.00  0.00    -0.326 OA
ENDROOT
BRANCH   1   2
ATOM      2  C1  IDS d   2     -37.749  29.141 -31.753  0.00  0.00     0.268 C 
ATOM      3  C2  IDS d   2     -38.424  28.070 -32.596  0.00  0.00     0.224 C 
ATOM      4  C3  IDS d   2     -38.871  28.678 -33.914  0.00  0.00     0.189 C 
ATOM      5  C4  IDS d   2     -39.956  29.702 -33.625  0.00  0.00     0.077 C 
ATOM      6  O3  IDS d   2     -39.404  27.647 -34.760  0.00  0.00    -0.221 OA
ATOM      7  C5  IDS d   2     -39.834  30.165 -32.182  0.00  0.00     0.207 C 
ATOM      8  O5  IDS d   2     -38.451  30.390 -31.872  0.00  0.00    -0.320 OA
ATOM      9  O2  IDS d   2     -37.513  26.982 -32.814  0.00  0.00    -0.233 OA
ATOM     10  S   IDS d   2     -37.523  25.853 -31.929  0.00  0.00     0.252 S 
ATOM     11  O3S IDS d   2     -38.954  25.329 -31.789  0.00  0.00    -0.572 OA
ATOM     12  O1S IDS d   2     -36.630  24.750 -32.500  0.00  0.00    -0.572 OA
ATOM     13  O2S IDS d   2     -36.997  26.273 -30.556  0.00  0.00    -0.572 OA
ATOM     14  C6  IDS d   2     -40.613  31.469 -32.002  0.00  0.00     0.214 C 
ATOM     15  O61 IDS d   2     -40.004  32.530 -32.254  0.00  0.00    -0.646 OA
ATOM     16  O62 IDS d   2     -41.808  31.373 -31.643  0.00  0.00    -0.646 OA
ENDBRANCH 1 2
BRANCH   1  17
ATOM     17  C4  SGN d   1     -37.180  29.723 -29.532  0.00  0.00     0.180 C 
ATOM     18  C3  SGN d   1     -38.082  29.863 -28.317  0.00  0.00     0.210 C 
ATOM     19  O3  SGN d   1     -39.364  30.356 -28.733  0.00  0.00    -0.218 OA
ATOM     20  C2  SGN d   1     -37.466  30.834 -27.323  0.00  0.00     0.210 C 
ATOM     21  C1  SGN d   1     -36.056  30.376 -26.986  0.00  0.00     0.295 C 
ATOM     22  O1  SGN d   1     -36.104  29.067 -26.398  0.00  0.00    -0.188 OA
ATOM     23  O5  SGN d   1     -35.265  30.337 -28.183  0.00  0.00    -0.325 OA
ATOM     24  C5  SGN d   1     -35.778  29.342 -29.082  0.00  0.00     0.181 C 
ATOM     25  N   SGN d   1     -38.299  30.924 -26.115  0.00  0.00    -0.162 NA
ATOM     26  S1  SGN d   1     -37.492  31.689 -24.922  0.00  0.00     0.227 S 
ATOM     27  O2S SGN d   1     -36.507  30.722 -24.261  0.00  0.00    -0.577 OA
ATOM     28  O3S SGN d   1     -36.735  32.881 -25.510  0.00  0.00    -0.577 OA
ATOM     29  O1S SGN d   1     -38.488  32.190 -23.875  0.00  0.00    -0.577 OA
ATOM     30  C6  SGN d   1     -34.862  29.232 -30.288  0.00  0.00     0.214 C 
ATOM     31  O6  SGN d   1     -33.545  28.873 -29.860  0.00  0.00    -0.218 OA
ENDBRANCH   1  17
TORSDOF 8
ENDMDL
MODEL 36
REMARK VINA RESULT:      -2.4      3.599      5.909
REMARK  8 active torsions:
REMARK  status: ('A' for Active; 'I' for Inactive)
REMARK    1  A    between atoms: C6_1  and  C5_27 
REMARK    2  A    between atoms: C6_4  and  C5_23 
REMARK    3  A    between atoms: C1_7  and  O1_9 
REMARK    4  A    between atoms: O1_9  and  C4_31 
REMARK    5  A    between atoms: S_13  and  O2_22 
REMARK    6  A    between atoms: N_19  and  C2_25 
REMARK    7  A    between atoms: N_19  and  S1_28 
REMARK    8  A    between atoms: C2_20  and  O2_22 
ROOT
ATOM      1  O4  SGN d   1     -36.957  30.341 -30.218  0.00  0.00    -0.326 OA
ENDROOT
BRANCH   1   2
ATOM      2  C1  IDS d   2     -36.989  30.560 -28.801  0.00  0.00     0.268 C 
ATOM      3  C2  IDS d   2     -35.899  31.553 -28.431  0.00  0.00     0.224 C 
ATOM      4  C3  IDS d   2     -36.188  32.124 -27.053  0.00  0.00     0.189 C 
ATOM      5  C4  IDS d   2     -37.465  32.943 -27.133  0.00  0.00     0.077 C 
ATOM      6  O3  IDS d   2     -35.102  32.974 -26.651  0.00  0.00    -0.221 OA
ATOM      7  C5  IDS d   2     -38.283  32.478 -28.328  0.00  0.00     0.207 C 
ATOM      8  O5  IDS d   2     -38.275  31.045 -28.379  0.00  0.00    -0.320 OA
ATOM      9  O2  IDS d   2     -34.621  30.900 -28.460  0.00  0.00    -0.233 OA
ATOM     10  S   IDS d   2     -33.823  30.942 -29.652  0.00  0.00     0.252 S 
ATOM     11  O3S IDS d   2     -33.692  32.391 -30.126  0.00  0.00    -0.572 OA
ATOM     12  O1S IDS d   2     -32.434  30.374 -29.356  0.00  0.00    -0.572 OA
ATOM     13  O2S IDS d   2     -34.492  30.107 -30.745  0.00  0.00    -0.572 OA
ATOM     14  C6  IDS d   2     -39.722  32.974 -28.178  0.00  0.00     0.214 C 
ATOM     15  O61 IDS d   2     -40.504  32.248 -27.530  0.00  0.00    -0.646 OA
ATOM     16  O62 IDS d   2     -40.000  34.080 -28.693  0.00  0.00    -0.646 OA
ENDBRANCH 1 2
BRANCH   1  17
ATOM     17  C4  SGN d   1     -37.978  29.415 -30.620  0.00  0.00     0.180 C 
ATOM     18  C3  SGN d   1     -38.561  29.867 -31.949  0.00  0.00     0.210 C 
ATOM     19  O3  SGN d   1     -39.250  31.112 -31.766  0.00  0.00    -0.218 OA
ATOM     20  C2  SGN d   1     -39.535  28.822 -32.469  0.00  0.00     0.210 C 
ATOM     21  C1  SGN d   1     -38.834  27.475 -32.537  0.00  0.00     0.295 C 
ATOM     22  O1  SGN d   1     -37.714  27.561 -33.432  0.00  0.00    -0.188 OA
ATOM     23  O5  SGN d   1     -38.376  27.105 -31.228  0.00  0.00    -0.325 OA
ATOM     24  C5  SGN d   1     -37.374  28.028 -30.776  0.00  0.00     0.181 C 
ATOM     25  N   SGN d   1     -40.054  29.219 -33.786  0.00  0.00    -0.162 NA
ATOM     26  S1  SGN d   1     -40.827  27.970 -34.495  0.00  0.00     0.227 S 
ATOM     27  O2S SGN d   1     -39.804  27.008 -35.104  0.00  0.00    -0.577 OA
ATOM     28  O3S SGN d   1     -41.668  27.239 -33.447  0.00  0.00    -0.577 OA
ATOM     29  O1S SGN d   1     -41.743  28.500 -35.599  0.00  0.00    -0.577 OA
ATOM     30  C6  SGN d   1     -36.817  27.556 -29.444  0.00  0.00     0.214 C 
ATOM     31  O6  SGN d   1     -36.250  26.251 -29.597  0.00  0.00    -0.218 OA
ENDBRANCH   1  17
TORSDOF 8
ENDMDL
MODEL 37
REMARK VINA RESULT:      -2.4      3.744      6.109
REMARK  8 active torsions:
REMARK  status: ('A' for Active; 'I' for Inactive)
REMARK    1  A    between atoms: C6_1  and  C5_27 
REMARK    2  A    between atoms: C6_4  and  C5_23 
REMARK    3  A    between atoms: C1_7  and  O1_9 
REMARK    4  A    between atoms: O1_9  and  C4_31 
REMARK    5  A    between atoms: S_13  and  O2_22 
REMARK    6  A    between atoms: N_19  and  C2_25 
REMARK    7  A    between atoms: N_19  and  S1_28 
REMARK    8  A    between atoms: C2_20  and  O2_22 
ROOT
ATOM      1  O4  SGN d   1     -36.574  30.714 -29.751  0.00  0.00    -0.326 OA
ENDROOT
BRANCH   1   2
ATOM      2  C1  IDS d   2     -36.820  31.070 -28.383  0.00  0.00     0.268 C 
ATOM      3  C2  IDS d   2     -35.904  32.222 -28.001  0.00  0.00     0.224 C 
ATOM      4  C3  IDS d   2     -36.436  32.889 -26.745  0.00  0.00     0.189 C 
ATOM      5  C4  IDS d   2     -37.773  33.533 -27.075  0.00  0.00     0.077 C 
ATOM      6  O3  IDS d   2     -35.514  33.903 -26.315  0.00  0.00    -0.221 OA
ATOM      7  C5  IDS d   2     -38.367  32.853 -28.298  0.00  0.00     0.207 C 
ATOM      8  O5  IDS d   2     -38.196  31.433 -28.180  0.00  0.00    -0.320 OA
ATOM      9  O2  IDS d   2     -34.571  31.732 -27.798  0.00  0.00    -0.233 OA
ATOM     10  S   IDS d   2     -33.629  31.750 -28.881  0.00  0.00     0.252 S 
ATOM     11  O3S IDS d   2     -33.594  33.149 -29.501  0.00  0.00    -0.572 OA
ATOM     12  O1S IDS d   2     -32.239  31.390 -28.354  0.00  0.00    -0.572 OA
ATOM     13  O2S IDS d   2     -34.050  30.732 -29.943  0.00  0.00    -0.572 OA
ATOM     14  C6  IDS d   2     -39.859  33.180 -28.383  0.00  0.00     0.214 C 
ATOM     15  O61 IDS d   2     -40.637  32.433 -27.755  0.00  0.00    -0.646 OA
ATOM     16  O62 IDS d   2     -40.183  34.186 -29.053  0.00  0.00    -0.646 OA
ENDBRANCH 1 2
BRANCH   1  17
ATOM     17  C4  SGN d   1     -37.316  29.542 -30.121  0.00  0.00     0.180 C 
ATOM     18  C3  SGN d   1     -37.758  29.671 -31.569  0.00  0.00     0.210 C 
ATOM     19  O3  SGN d   1     -38.698  30.750 -31.683  0.00  0.00    -0.218 OA
ATOM     20  C2  SGN d   1     -38.413  28.379 -32.028  0.00  0.00     0.210 C 
ATOM     21  C1  SGN d   1     -37.460  27.221 -31.782  0.00  0.00     0.295 C 
ATOM     22  O1  SGN d   1     -36.251  27.427 -32.529  0.00  0.00    -0.188 OA
ATOM     23  O5  SGN d   1     -37.153  27.140 -30.382  0.00  0.00    -0.325 OA
ATOM     24  C5  SGN d   1     -36.435  28.313 -29.966  0.00  0.00     0.181 C 
ATOM     25  N   SGN d   1     -38.784  28.471 -33.448  0.00  0.00    -0.162 NA
ATOM     26  S1  SGN d   1     -39.173  26.999 -34.032  0.00  0.00     0.227 S 
ATOM     27  O2S SGN d   1     -37.899  26.210 -34.339  0.00  0.00    -0.577 OA
ATOM     28  O3S SGN d   1     -40.011  26.251 -32.993  0.00  0.00    -0.577 OA
ATOM     29  O1S SGN d   1     -39.988  27.162 -35.316  0.00  0.00    -0.577 OA
ATOM     30  C6  SGN d   1     -36.015  28.158 -28.515  0.00  0.00     0.214 C 
ATOM     31  O6  SGN d   1     -35.187  27.000 -28.375  0.00  0.00    -0.218 OA
ENDBRANCH   1  17
TORSDOF 8
ENDMDL
MODEL 38
REMARK VINA RESULT:      -2.4      3.744      6.591
REMARK  8 active torsions:
REMARK  status: ('A' for Active; 'I' for Inactive)
REMARK    1  A    between atoms: C6_1  and  C5_27 
REMARK    2  A    between atoms: C6_4  and  C5_23 
REMARK    3  A    between atoms: C1_7  and  O1_9 
REMARK    4  A    between atoms: O1_9  and  C4_31 
REMARK    5  A    between atoms: S_13  and  O2_22 
REMARK    6  A    between atoms: N_19  and  C2_25 
REMARK    7  A    between atoms: N_19  and  S1_28 
REMARK    8  A    between atoms: C2_20  and  O2_22 
ROOT
ATOM      1  O4  SGN d   1     -37.511  30.139 -29.033  0.00  0.00    -0.326 OA
ENDROOT
BRANCH   1   2
ATOM      2  C1  IDS d   2     -37.466  29.606 -27.702  0.00  0.00     0.268 C 
ATOM      3  C2  IDS d   2     -37.827  30.707 -26.717  0.00  0.00     0.224 C 
ATOM      4  C3  IDS d   2     -38.209  30.082 -25.386  0.00  0.00     0.189 C 
ATOM      5  C4  IDS d   2     -39.488  29.285 -25.582  0.00  0.00     0.077 C 
ATOM      6  O3  IDS d   2     -38.439  31.120 -24.421  0.00  0.00    -0.221 OA
ATOM      7  C5  IDS d   2     -39.630  28.922 -27.052  0.00  0.00     0.207 C 
ATOM      8  O5  IDS d   2     -38.360  28.490 -27.558  0.00  0.00    -0.320 OA
ATOM      9  O2  IDS d   2     -36.716  31.603 -26.565  0.00  0.00    -0.233 OA
ATOM     10  S   IDS d   2     -36.633  32.783 -27.377  0.00  0.00     0.252 S 
ATOM     11  O3S IDS d   2     -37.953  33.553 -27.292  0.00  0.00    -0.572 OA
ATOM     12  O1S IDS d   2     -35.492  33.669 -26.872  0.00  0.00    -0.572 OA
ATOM     13  O2S IDS d   2     -36.365  32.388 -28.830  0.00  0.00    -0.572 OA
ATOM     14  C6  IDS d   2     -40.648  27.788 -27.195  0.00  0.00     0.214 C 
ATOM     15  O61 IDS d   2     -40.212  26.623 -27.088  0.00  0.00    -0.646 OA
ATOM     16  O62 IDS d   2     -41.841  28.115 -27.384  0.00  0.00    -0.646 OA
ENDBRANCH 1 2
BRANCH   1  17
ATOM     17  C4  SGN d   1     -37.336  29.103 -30.010  0.00  0.00     0.180 C 
ATOM     18  C3  SGN d   1     -38.293  29.344 -31.166  0.00  0.00     0.210 C 
ATOM     19  O3  SGN d   1     -39.643  29.186 -30.704  0.00  0.00    -0.218 OA
ATOM     20  C2  SGN d   1     -38.019  28.348 -32.281  0.00  0.00     0.210 C 
ATOM     21  C1  SGN d   1     -36.554  28.429 -32.676  0.00  0.00     0.295 C 
ATOM     22  O1  SGN d   1     -36.256  29.754 -33.144  0.00  0.00    -0.188 OA
ATOM     23  O5  SGN d   1     -35.733  28.125 -31.539  0.00  0.00    -0.325 OA
ATOM     24  C5  SGN d   1     -35.904  29.125 -30.523  0.00  0.00     0.181 C 
ATOM     25  N   SGN d   1     -38.896  28.616 -33.431  0.00  0.00    -0.162 NA
ATOM     26  S1  SGN d   1     -38.391  27.784 -34.739  0.00  0.00     0.227 S 
ATOM     27  O2S SGN d   1     -37.203  28.503 -35.382  0.00  0.00    -0.577 OA
ATOM     28  O3S SGN d   1     -37.977  26.375 -34.311  0.00  0.00    -0.577 OA
ATOM     29  O1S SGN d   1     -39.533  27.689 -35.752  0.00  0.00    -0.577 OA
ATOM     30  C6  SGN d   1     -34.942  28.853 -29.380  0.00  0.00     0.214 C 
ATOM     31  O6  SGN d   1     -33.598  28.875 -29.868  0.00  0.00    -0.218 OA
ENDBRANCH   1  17
TORSDOF 8
ENDMDL
MODEL 39
REMARK VINA RESULT:      -2.4      2.988      6.996
REMARK  8 active torsions:
REMARK  status: ('A' for Active; 'I' for Inactive)
REMARK    1  A    between atoms: C6_1  and  C5_27 
REMARK    2  A    between atoms: C6_4  and  C5_23 
REMARK    3  A    between atoms: C1_7  and  O1_9 
REMARK    4  A    between atoms: O1_9  and  C4_31 
REMARK    5  A    between atoms: S_13  and  O2_22 
REMARK    6  A    between atoms: N_19  and  C2_25 
REMARK    7  A    between atoms: N_19  and  S1_28 
REMARK    8  A    between atoms: C2_20  and  O2_22 
ROOT
ATOM      1  O4  SGN d   1     -39.513  27.115 -31.592  0.00  0.00    -0.326 OA
ENDROOT
BRANCH   1   2
ATOM      2  C1  IDS d   2     -40.725  26.354 -31.684  0.00  0.00     0.268 C 
ATOM      3  C2  IDS d   2     -41.142  26.265 -33.143  0.00  0.00     0.224 C 
ATOM      4  C3  IDS d   2     -42.139  25.131 -33.311  0.00  0.00     0.189 C 
ATOM      5  C4  IDS d   2     -41.428  23.821 -33.017  0.00  0.00     0.077 C 
ATOM      6  O3  IDS d   2     -42.623  25.117 -34.663  0.00  0.00    -0.221 OA
ATOM      7  C5  IDS d   2     -40.208  24.098 -32.152  0.00  0.00     0.207 C 
ATOM      8  O5  IDS d   2     -40.557  25.040 -31.127  0.00  0.00    -0.320 OA
ATOM      9  O2  IDS d   2     -41.710  27.515 -33.561  0.00  0.00    -0.233 OA
ATOM     10  S   IDS d   2     -40.878  28.507 -34.181  0.00  0.00     0.252 S 
ATOM     11  O3S IDS d   2     -40.095  27.867 -35.330  0.00  0.00    -0.572 OA
ATOM     12  O1S IDS d   2     -41.753  29.637 -34.727  0.00  0.00    -0.572 OA
ATOM     13  O2S IDS d   2     -39.900  29.073 -33.151  0.00  0.00    -0.572 OA
ATOM     14  C6  IDS d   2     -39.740  22.793 -31.505  0.00  0.00     0.214 C 
ATOM     15  O61 IDS d   2     -40.272  22.479 -30.420  0.00  0.00    -0.646 OA
ATOM     16  O62 IDS d   2     -38.881  22.127 -32.124  0.00  0.00    -0.646 OA
ENDBRANCH 1 2
BRANCH   1  17
ATOM     17  C4  SGN d   1     -39.133  27.318 -30.223  0.00  0.00     0.180 C 
ATOM     18  C3  SGN d   1     -37.617  27.384 -30.133  0.00  0.00     0.210 C 
ATOM     19  O3  SGN d   1     -37.066  26.104 -30.479  0.00  0.00    -0.218 OA
ATOM     20  C2  SGN d   1     -37.198  27.749 -28.719  0.00  0.00     0.210 C 
ATOM     21  C1  SGN d   1     -37.889  29.040 -28.310  0.00  0.00     0.295 C 
ATOM     22  O1  SGN d   1     -37.502  30.095 -29.204  0.00  0.00    -0.188 OA
ATOM     23  O5  SGN d   1     -39.312  28.860 -28.365  0.00  0.00    -0.325 OA
ATOM     24  C5  SGN d   1     -39.728  28.623 -29.718  0.00  0.00     0.181 C 
ATOM     25  N   SGN d   1     -35.735  27.880 -28.639  0.00  0.00    -0.162 NA
ATOM     26  S1  SGN d   1     -35.303  28.589 -27.235  0.00  0.00     0.227 S 
ATOM     27  O2S SGN d   1     -35.508  30.103 -27.335  0.00  0.00    -0.577 OA
ATOM     28  O3S SGN d   1     -36.157  28.023 -26.100  0.00  0.00    -0.577 OA
ATOM     29  O1S SGN d   1     -33.828  28.296 -26.952  0.00  0.00    -0.577 OA
ATOM     30  C6  SGN d   1     -41.245  28.554 -29.775  0.00  0.00     0.214 C 
ATOM     31  O6  SGN d   1     -41.799  29.784 -29.299  0.00  0.00    -0.218 OA
ENDBRANCH   1  17
TORSDOF 8
ENDMDL
MODEL 40
REMARK VINA RESULT:      -2.3      3.451      7.659
REMARK  8 active torsions:
REMARK  status: ('A' for Active; 'I' for Inactive)
REMARK    1  A    between atoms: C6_1  and  C5_27 
REMARK    2  A    between atoms: C6_4  and  C5_23 
REMARK    3  A    between atoms: C1_7  and  O1_9 
REMARK    4  A    between atoms: O1_9  and  C4_31 
REMARK    5  A    between atoms: S_13  and  O2_22 
REMARK    6  A    between atoms: N_19  and  C2_25 
REMARK    7  A    between atoms: N_19  and  S1_28 
REMARK    8  A    between atoms: C2_20  and  O2_22 
ROOT
ATOM      1  O4  SGN d   1     -38.769  28.584 -31.599  0.00  0.00    -0.326 OA
ENDROOT
BRANCH   1   2
ATOM      2  C1  IDS d   2     -39.428  28.749 -32.862  0.00  0.00     0.268 C 
ATOM      3  C2  IDS d   2     -40.617  27.803 -32.924  0.00  0.00     0.224 C 
ATOM      4  C3  IDS d   2     -41.561  28.258 -34.024  0.00  0.00     0.189 C 
ATOM      5  C4  IDS d   2     -42.143  29.605 -33.629  0.00  0.00     0.077 C 
ATOM      6  O3  IDS d   2     -42.625  27.303 -34.164  0.00  0.00    -0.221 OA
ATOM      7  C5  IDS d   2     -41.217  30.273 -32.624  0.00  0.00     0.207 C 
ATOM      8  O5  IDS d   2     -39.857  30.108 -33.050  0.00  0.00    -0.320 OA
ATOM      9  O2  IDS d   2     -40.157  26.464 -33.162  0.00  0.00    -0.233 OA
ATOM     10  S   IDS d   2     -39.911  25.586 -32.054  0.00  0.00     0.252 S 
ATOM     11  O3S IDS d   2     -41.133  25.573 -31.134  0.00  0.00    -0.572 OA
ATOM     12  O1S IDS d   2     -39.649  24.171 -32.575  0.00  0.00    -0.572 OA
ATOM     13  O2S IDS d   2     -38.690  26.074 -31.274  0.00  0.00    -0.572 OA
ATOM     14  C6  IDS d   2     -41.549  31.764 -32.546  0.00  0.00     0.214 C 
ATOM     15  O61 IDS d   2     -40.979  32.513 -33.367  0.00  0.00    -0.646 OA
ATOM     16  O62 IDS d   2     -42.384  32.117 -31.684  0.00  0.00    -0.646 OA
ENDBRANCH 1 2
BRANCH   1  17
ATOM     17  C4  SGN d   1     -37.532  29.311 -31.563  0.00  0.00     0.180 C 
ATOM     18  C3  SGN d   1     -37.318  29.859 -30.162  0.00  0.00     0.210 C 
ATOM     19  O3  SGN d   1     -38.327  30.840 -29.878  0.00  0.00    -0.218 OA
ATOM     20  C2  SGN d   1     -35.945  30.502 -30.061  0.00  0.00     0.210 C 
ATOM     21  C1  SGN d   1     -34.889  29.496 -30.490  0.00  0.00     0.295 C 
ATOM     22  O1  SGN d   1     -34.938  28.351 -29.625  0.00  0.00    -0.188 OA
ATOM     23  O5  SGN d   1     -35.137  29.087 -31.843  0.00  0.00    -0.325 OA
ATOM     24  C5  SGN d   1     -36.384  28.381 -31.925  0.00  0.00     0.181 C 
ATOM     25  N   SGN d   1     -35.703  30.976 -28.690  0.00  0.00    -0.162 NA
ATOM     26  S1  SGN d   1     -34.131  31.358 -28.488  0.00  0.00     0.227 S 
ATOM     27  O2S SGN d   1     -33.312  30.083 -28.272  0.00  0.00    -0.577 OA
ATOM     28  O3S SGN d   1     -33.627  32.094 -29.731  0.00  0.00    -0.577 OA
ATOM     29  O1S SGN d   1     -33.982  32.267 -27.267  0.00  0.00    -0.577 OA
ATOM     30  C6  SGN d   1     -36.573  27.854 -33.337  0.00  0.00     0.214 C 
ATOM     31  O6  SGN d   1     -35.491  26.980 -33.672  0.00  0.00    -0.218 OA
ENDBRANCH   1  17
TORSDOF 8
ENDMDL
MODEL 41
REMARK VINA RESULT:      -2.3      3.588      7.452
REMARK  8 active torsions:
REMARK  status: ('A' for Active; 'I' for Inactive)
REMARK    1  A    between atoms: C6_1  and  C5_27 
REMARK    2  A    between atoms: C6_4  and  C5_23 
REMARK    3  A    between atoms: C1_7  and  O1_9 
REMARK    4  A    between atoms: O1_9  and  C4_31 
REMARK    5  A    between atoms: S_13  and  O2_22 
REMARK    6  A    between atoms: N_19  and  C2_25 
REMARK    7  A    between atoms: N_19  and  S1_28 
REMARK    8  A    between atoms: C2_20  and  O2_22 
ROOT
ATOM      1  O4  SGN d   1     -39.024  28.956 -30.918  0.00  0.00    -0.326 OA
ENDROOT
BRANCH   1   2
ATOM      2  C1  IDS d   2     -39.421  29.761 -32.038  0.00  0.00     0.268 C 
ATOM      3  C2  IDS d   2     -40.764  29.264 -32.550  0.00  0.00     0.224 C 
ATOM      4  C3  IDS d   2     -41.396  30.338 -33.419  0.00  0.00     0.189 C 
ATOM      5  C4  IDS d   2     -41.721  31.535 -32.540  0.00  0.00     0.077 C 
ATOM      6  O3  IDS d   2     -42.608  29.831 -33.998  0.00  0.00    -0.221 OA
ATOM      7  C5  IDS d   2     -40.843  31.495 -31.298  0.00  0.00     0.207 C 
ATOM      8  O5  IDS d   2     -39.503  31.150 -31.676  0.00  0.00    -0.320 OA
ATOM      9  O2  IDS d   2     -40.579  28.048 -33.289  0.00  0.00    -0.233 OA
ATOM     10  S   IDS d   2     -40.713  26.781 -32.627  0.00  0.00     0.252 S 
ATOM     11  O3S IDS d   2     -42.039  26.745 -31.864  0.00  0.00    -0.572 OA
ATOM     12  O1S IDS d   2     -40.691  25.659 -33.666  0.00  0.00    -0.572 OA
ATOM     13  O2S IDS d   2     -39.555  26.590 -31.646  0.00  0.00    -0.572 OA
ATOM     14  C6  IDS d   2     -40.845  32.874 -30.635  0.00  0.00     0.214 C 
ATOM     15  O61 IDS d   2     -40.000  33.697 -31.043  0.00  0.00    -0.646 OA
ATOM     16  O62 IDS d   2     -41.708  33.080 -29.753  0.00  0.00    -0.646 OA
ENDBRANCH 1 2
BRANCH   1  17
ATOM     17  C4  SGN d   1     -37.682  29.262 -30.513  0.00  0.00     0.180 C 
ATOM     18  C3  SGN d   1     -37.609  29.255 -28.994  0.00  0.00     0.210 C 
ATOM     19  O3  SGN d   1     -38.402  30.333 -28.476  0.00  0.00    -0.218 OA
ATOM     20  C2  SGN d   1     -36.167  29.426 -28.545  0.00  0.00     0.210 C 
ATOM     21  C1  SGN d   1     -35.308  28.358 -29.202  0.00  0.00     0.295 C 
ATOM     22  O1  SGN d   1     -35.774  27.058 -28.808  0.00  0.00    -0.188 OA
ATOM     23  O5  SGN d   1     -35.391  28.486 -30.629  0.00  0.00    -0.325 OA
ATOM     24  C5  SGN d   1     -36.731  28.217 -31.072  0.00  0.00     0.181 C 
ATOM     25  N   SGN d   1     -36.078  29.353 -27.079  0.00  0.00    -0.162 NA
ATOM     26  S1  SGN d   1     -34.523  29.200 -26.609  0.00  0.00     0.227 S 
ATOM     27  O2S SGN d   1     -34.070  27.748 -26.784  0.00  0.00    -0.577 OA
ATOM     28  O3S SGN d   1     -33.647  30.123 -27.458  0.00  0.00    -0.577 OA
ATOM     29  O1S SGN d   1     -34.397  29.595 -25.137  0.00  0.00    -0.577 OA
ATOM     30  C6  SGN d   1     -36.774  28.239 -32.590  0.00  0.00     0.214 C 
ATOM     31  O6  SGN d   1     -35.877  27.254 -33.111  0.00  0.00    -0.218 OA
ENDBRANCH   1  17
TORSDOF 8
ENDMDL
MODEL 42
REMARK VINA RESULT:      -2.3      3.027      5.316
REMARK  8 active torsions:
REMARK  status: ('A' for Active; 'I' for Inactive)
REMARK    1  A    between atoms: C6_1  and  C5_27 
REMARK    2  A    between atoms: C6_4  and  C5_23 
REMARK    3  A    between atoms: C1_7  and  O1_9 
REMARK    4  A    between atoms: O1_9  and  C4_31 
REMARK    5  A    between atoms: S_13  and  O2_22 
REMARK    6  A    between atoms: N_19  and  C2_25 
REMARK    7  A    between atoms: N_19  and  S1_28 
REMARK    8  A    between atoms: C2_20  and  O2_22 
ROOT
ATOM      1  O4  SGN d   1     -36.077  29.211 -29.581  0.00  0.00    -0.326 OA
ENDROOT
BRANCH   1   2
ATOM      2  C1  IDS d   2     -35.586  30.507 -29.950  0.00  0.00     0.268 C 
ATOM      3  C2  IDS d   2     -36.082  31.529 -28.939  0.00  0.00     0.224 C 
ATOM      4  C3  IDS d   2     -35.242  32.790 -29.048  0.00  0.00     0.189 C 
ATOM      5  C4  IDS d   2     -33.823  32.458 -28.618  0.00  0.00     0.077 C 
ATOM      6  O3  IDS d   2     -35.779  33.797 -28.176  0.00  0.00    -0.221 OA
ATOM      7  C5  IDS d   2     -33.592  30.962 -28.770  0.00  0.00     0.207 C 
ATOM      8  O5  IDS d   2     -34.150  30.521 -30.015  0.00  0.00    -0.320 OA
ATOM      9  O2  IDS d   2     -37.469  31.812 -29.178  0.00  0.00    -0.233 OA
ATOM     10  S   IDS d   2     -38.481  31.080 -28.471  0.00  0.00     0.252 S 
ATOM     11  O3S IDS d   2     -38.181  31.118 -26.971  0.00  0.00    -0.572 OA
ATOM     12  O1S IDS d   2     -39.847  31.715 -28.735  0.00  0.00    -0.572 OA
ATOM     13  O2S IDS d   2     -38.494  29.628 -28.952  0.00  0.00    -0.572 OA
ATOM     14  C6  IDS d   2     -32.088  30.680 -28.758  0.00  0.00     0.214 C 
ATOM     15  O61 IDS d   2     -31.493  30.748 -29.853  0.00  0.00    -0.646 OA
ATOM     16  O62 IDS d   2     -31.566  30.429 -27.649  0.00  0.00    -0.646 OA
ENDBRANCH 1 2
BRANCH   1  17
ATOM     17  C4  SGN d   1     -36.082  28.321 -30.707  0.00  0.00     0.180 C 
ATOM     18  C3  SGN d   1     -36.850  27.062 -30.340  0.00  0.00     0.210 C 
ATOM     19  O3  SGN d   1     -36.135  26.352 -29.318  0.00  0.00    -0.218 OA
ATOM     20  C2  SGN d   1     -36.999  26.172 -31.564  0.00  0.00     0.210 C 
ATOM     21  C1  SGN d   1     -37.639  26.970 -32.688  0.00  0.00     0.295 C 
ATOM     22  O1  SGN d   1     -38.937  27.426 -32.275  0.00  0.00    -0.188 OA
ATOM     23  O5  SGN d   1     -36.812  28.100 -33.006  0.00  0.00    -0.325 OA
ATOM     24  C5  SGN d   1     -36.756  29.001 -31.889  0.00  0.00     0.181 C 
ATOM     25  N   SGN d   1     -37.798  24.982 -31.234  0.00  0.00    -0.162 NA
ATOM     26  S1  SGN d   1     -38.244  24.200 -32.594  0.00  0.00     0.227 S 
ATOM     27  O2S SGN d   1     -39.435  24.915 -33.236  0.00  0.00    -0.577 OA
ATOM     28  O3S SGN d   1     -37.066  24.176 -33.570  0.00  0.00    -0.577 OA
ATOM     29  O1S SGN d   1     -38.643  22.765 -32.247  0.00  0.00    -0.577 OA
ATOM     30  C6  SGN d   1     -35.976  30.243 -32.283  0.00  0.00     0.214 C 
ATOM     31  O6  SGN d   1     -36.614  30.878 -33.394  0.00  0.00    -0.218 OA
ENDBRANCH   1  17
TORSDOF 8
ENDMDL
MODEL 43
REMARK VINA RESULT:      -2.3      3.734      6.145
REMARK  8 active torsions:
REMARK  status: ('A' for Active; 'I' for Inactive)
REMARK    1  A    between atoms: C6_1  and  C5_27 
REMARK    2  A    between atoms: C6_4  and  C5_23 
REMARK    3  A    between atoms: C1_7  and  O1_9 
REMARK    4  A    between atoms: O1_9  and  C4_31 
REMARK    5  A    between atoms: S_13  and  O2_22 
REMARK    6  A    between atoms: N_19  and  C2_25 
REMARK    7  A    between atoms: N_19  and  S1_28 
REMARK    8  A    between atoms: C2_20  and  O2_22 
ROOT
ATOM      1  O4  SGN d   1     -37.215  30.731 -29.587  0.00  0.00    -0.326 OA
ENDROOT
BRANCH   1   2
ATOM      2  C1  IDS d   2     -37.607  30.929 -28.222  0.00  0.00     0.268 C 
ATOM      3  C2  IDS d   2     -37.110  32.289 -27.759  0.00  0.00     0.224 C 
ATOM      4  C3  IDS d   2     -37.867  32.699 -26.507  0.00  0.00     0.189 C 
ATOM      5  C4  IDS d   2     -39.326  32.911 -26.879  0.00  0.00     0.077 C 
ATOM      6  O3  IDS d   2     -37.322  33.928 -26.001  0.00  0.00    -0.221 OA
ATOM      7  C5  IDS d   2     -39.635  32.137 -28.151  0.00  0.00     0.207 C 
ATOM      8  O5  IDS d   2     -39.034  30.837 -28.072  0.00  0.00    -0.320 OA
ATOM      9  O2  IDS d   2     -35.698  32.229 -27.509  0.00  0.00    -0.233 OA
ATOM     10  S   IDS d   2     -34.772  32.588 -28.545  0.00  0.00     0.252 S 
ATOM     11  O3S IDS d   2     -35.154  33.956 -29.115  0.00  0.00    -0.572 OA
ATOM     12  O1S IDS d   2     -33.359  32.653 -27.964  0.00  0.00    -0.572 OA
ATOM     13  O2S IDS d   2     -34.817  31.541 -29.659  0.00  0.00    -0.572 OA
ATOM     14  C6  IDS d   2     -41.150  31.989 -28.296  0.00  0.00     0.214 C 
ATOM     15  O61 IDS d   2     -41.678  31.009 -27.731  0.00  0.00    -0.646 OA
ATOM     16  O62 IDS d   2     -41.749  32.874 -28.947  0.00  0.00    -0.646 OA
ENDBRANCH 1 2
BRANCH   1  17
ATOM     17  C4  SGN d   1     -37.834  29.558 -30.137  0.00  0.00     0.180 C 
ATOM     18  C3  SGN d   1     -38.209  29.829 -31.585  0.00  0.00     0.210 C 
ATOM     19  O3  SGN d   1     -39.230  30.836 -31.631  0.00  0.00    -0.218 OA
ATOM     20  C2  SGN d   1     -38.727  28.554 -32.232  0.00  0.00     0.210 C 
ATOM     21  C1  SGN d   1     -37.693  27.453 -32.065  0.00  0.00     0.295 C 
ATOM     22  O1  SGN d   1     -36.468  27.842 -32.706  0.00  0.00    -0.188 OA
ATOM     23  O5  SGN d   1     -37.454  27.227 -30.668  0.00  0.00    -0.325 OA
ATOM     24  C5  SGN d   1     -36.861  28.392 -30.074  0.00  0.00     0.181 C 
ATOM     25  N   SGN d   1     -39.029  28.790 -33.652  0.00  0.00    -0.162 NA
ATOM     26  S1  SGN d   1     -39.261  27.374 -34.428  0.00  0.00     0.227 S 
ATOM     27  O2S SGN d   1     -37.910  26.730 -34.745  0.00  0.00    -0.577 OA
ATOM     28  O3S SGN d   1     -40.085  26.442 -33.538  0.00  0.00    -0.577 OA
ATOM     29  O1S SGN d   1     -40.019  27.629 -35.732  0.00  0.00    -0.577 OA
ATOM     30  C6  SGN d   1     -36.506  28.094 -28.627  0.00  0.00     0.214 C 
ATOM     31  O6  SGN d   1     -35.591  26.996 -28.573  0.00  0.00    -0.218 OA
ENDBRANCH   1  17
TORSDOF 8
ENDMDL
MODEL 44
REMARK VINA RESULT:      -2.2      3.052      7.581
REMARK  8 active torsions:
REMARK  status: ('A' for Active; 'I' for Inactive)
REMARK    1  A    between atoms: C6_1  and  C5_27 
REMARK    2  A    between atoms: C6_4  and  C5_23 
REMARK    3  A    between atoms: C1_7  and  O1_9 
REMARK    4  A    between atoms: O1_9  and  C4_31 
REMARK    5  A    between atoms: S_13  and  O2_22 
REMARK    6  A    between atoms: N_19  and  C2_25 
REMARK    7  A    between atoms: N_19  and  S1_28 
REMARK    8  A    between atoms: C2_20  and  O2_22 
ROOT
ATOM      1  O4  SGN d   1     -38.048  27.436 -31.158  0.00  0.00    -0.326 OA
ENDROOT
BRANCH   1   2
ATOM      2  C1  IDS d   2     -39.330  27.607 -31.778  0.00  0.00     0.268 C 
ATOM      3  C2  IDS d   2     -39.335  26.874 -33.110  0.00  0.00     0.224 C 
ATOM      4  C3  IDS d   2     -40.770  26.671 -33.564  0.00  0.00     0.189 C 
ATOM      5  C4  IDS d   2     -41.452  25.728 -32.587  0.00  0.00     0.077 C 
ATOM      6  O3  IDS d   2     -40.777  26.084 -34.875  0.00  0.00    -0.221 OA
ATOM      7  C5  IDS d   2     -40.709  25.761 -31.261  0.00  0.00     0.207 C 
ATOM      8  O5  IDS d   2     -40.385  27.119 -30.932  0.00  0.00    -0.320 OA
ATOM      9  O2  IDS d   2     -38.591  27.628 -34.079  0.00  0.00    -0.233 OA
ATOM     10  S   IDS d   2     -37.197  27.351 -34.284  0.00  0.00     0.252 S 
ATOM     11  O3S IDS d   2     -37.006  25.851 -34.516  0.00  0.00    -0.572 OA
ATOM     12  O1S IDS d   2     -36.700  28.125 -35.506  0.00  0.00    -0.572 OA
ATOM     13  O2S IDS d   2     -36.402  27.782 -33.051  0.00  0.00    -0.572 OA
ATOM     14  C6  IDS d   2     -41.603  25.172 -30.167  0.00  0.00     0.214 C 
ATOM     15  O61 IDS d   2     -42.386  25.958 -29.595  0.00  0.00    -0.646 OA
ATOM     16  O62 IDS d   2     -41.499  23.945 -29.947  0.00  0.00    -0.646 OA
ENDBRANCH 1 2
BRANCH   1  17
ATOM     17  C4  SGN d   1     -37.810  28.453 -30.174  0.00  0.00     0.180 C 
ATOM     18  C3  SGN d   1     -36.443  28.229 -29.548  0.00  0.00     0.210 C 
ATOM     19  O3  SGN d   1     -36.458  27.000 -28.807  0.00  0.00    -0.218 OA
ATOM     20  C2  SGN d   1     -36.107  29.379 -28.614  0.00  0.00     0.210 C 
ATOM     21  C1  SGN d   1     -36.221  30.690 -29.374  0.00  0.00     0.295 C 
ATOM     22  O1  SGN d   1     -35.298  30.690 -30.474  0.00  0.00    -0.188 OA
ATOM     23  O5  SGN d   1     -37.559  30.843 -29.871  0.00  0.00    -0.325 OA
ATOM     24  C5  SGN d   1     -37.846  29.821 -30.838  0.00  0.00     0.181 C 
ATOM     25  N   SGN d   1     -34.758  29.204 -28.055  0.00  0.00    -0.162 NA
ATOM     26  S1  SGN d   1     -34.259  30.576 -27.329  0.00  0.00     0.227 S 
ATOM     27  O2S SGN d   1     -33.774  31.574 -28.383  0.00  0.00    -0.577 OA
ATOM     28  O3S SGN d   1     -35.422  31.180 -26.539  0.00  0.00    -0.577 OA
ATOM     29  O1S SGN d   1     -33.111  30.255 -26.371  0.00  0.00    -0.577 OA
ATOM     30  C6  SGN d   1     -39.220  30.067 -31.438  0.00  0.00     0.214 C 
ATOM     31  O6  SGN d   1     -39.248  31.354 -32.061  0.00  0.00    -0.218 OA
ENDBRANCH   1  17
TORSDOF 8
ENDMDL
MODEL 45
REMARK VINA RESULT:      -2.2      3.541      6.176
REMARK  8 active torsions:
REMARK  status: ('A' for Active; 'I' for Inactive)
REMARK    1  A    between atoms: C6_1  and  C5_27 
REMARK    2  A    between atoms: C6_4  and  C5_23 
REMARK    3  A    between atoms: C1_7  and  O1_9 
REMARK    4  A    between atoms: O1_9  and  C4_31 
REMARK    5  A    between atoms: S_13  and  O2_22 
REMARK    6  A    between atoms: N_19  and  C2_25 
REMARK    7  A    between atoms: N_19  and  S1_28 
REMARK    8  A    between atoms: C2_20  and  O2_22 
ROOT
ATOM      1  O4  SGN d   1     -37.535  30.034 -28.759  0.00  0.00    -0.326 OA
ENDROOT
BRANCH   1   2
ATOM      2  C1  IDS d   2     -37.648  30.195 -27.338  0.00  0.00     0.268 C 
ATOM      3  C2  IDS d   2     -37.449  31.662 -26.992  0.00  0.00     0.224 C 
ATOM      4  C3  IDS d   2     -37.987  31.923 -25.595  0.00  0.00     0.189 C 
ATOM      5  C4  IDS d   2     -39.493  31.718 -25.616  0.00  0.00     0.077 C 
ATOM      6  O3  IDS d   2     -37.698  33.279 -25.219  0.00  0.00    -0.221 OA
ATOM      7  C5  IDS d   2     -39.858  30.821 -26.789  0.00  0.00     0.207 C 
ATOM      8  O5  IDS d   2     -38.924  29.734 -26.863  0.00  0.00    -0.320 OA
ATOM      9  O2  IDS d   2     -36.055  31.994 -27.076  0.00  0.00    -0.233 OA
ATOM     10  S   IDS d   2     -35.521  32.530 -28.296  0.00  0.00     0.252 S 
ATOM     11  O3S IDS d   2     -36.378  33.713 -28.750  0.00  0.00    -0.572 OA
ATOM     12  O1S IDS d   2     -34.085  33.001 -28.058  0.00  0.00    -0.572 OA
ATOM     13  O2S IDS d   2     -35.528  31.449 -29.378  0.00  0.00    -0.572 OA
ATOM     14  C6  IDS d   2     -41.268  30.266 -26.580  0.00  0.00     0.214 C 
ATOM     15  O61 IDS d   2     -41.367  29.213 -25.916  0.00  0.00    -0.646 OA
ATOM     16  O62 IDS d   2     -42.216  30.922 -27.067  0.00  0.00    -0.646 OA
ENDBRANCH 1 2
BRANCH   1  17
ATOM     17  C4  SGN d   1     -37.710  28.660 -29.138  0.00  0.00     0.180 C 
ATOM     18  C3  SGN d   1     -38.416  28.603 -30.483  0.00  0.00     0.210 C 
ATOM     19  O3  SGN d   1     -39.749  29.116 -30.340  0.00  0.00    -0.218 OA
ATOM     20  C2  SGN d   1     -38.477  27.167 -30.975  0.00  0.00     0.210 C 
ATOM     21  C1  SGN d   1     -37.072  26.587 -31.000  0.00  0.00     0.295 C 
ATOM     22  O1  SGN d   1     -36.250  27.357 -31.891  0.00  0.00    -0.188 OA
ATOM     23  O5  SGN d   1     -36.513  26.625 -29.678  0.00  0.00    -0.325 OA
ATOM     24  C5  SGN d   1     -36.352  27.986 -29.249  0.00  0.00     0.181 C 
ATOM     25  N   SGN d   1     -39.099  27.110 -32.307  0.00  0.00    -0.162 NA
ATOM     26  S1  SGN d   1     -38.869  25.643 -32.981  0.00  0.00     0.227 S 
ATOM     27  O2S SGN d   1     -37.454  25.553 -33.556  0.00  0.00    -0.577 OA
ATOM     28  O3S SGN d   1     -39.066  24.562 -31.916  0.00  0.00    -0.577 OA
ATOM     29  O1S SGN d   1     -39.885  25.436 -34.105  0.00  0.00    -0.577 OA
ATOM     30  C6  SGN d   1     -35.652  28.010 -27.901  0.00  0.00     0.214 C 
ATOM     31  O6  SGN d   1     -34.375  27.375 -28.012  0.00  0.00    -0.218 OA
ENDBRANCH   1  17
TORSDOF 8
ENDMDL
MODEL 46
REMARK VINA RESULT:      -2.2      3.501      5.502
REMARK  8 active torsions:
REMARK  status: ('A' for Active; 'I' for Inactive)
REMARK    1  A    between atoms: C6_1  and  C5_27 
REMARK    2  A    between atoms: C6_4  and  C5_23 
REMARK    3  A    between atoms: C1_7  and  O1_9 
REMARK    4  A    between atoms: O1_9  and  C4_31 
REMARK    5  A    between atoms: S_13  and  O2_22 
REMARK    6  A    between atoms: N_19  and  C2_25 
REMARK    7  A    between atoms: N_19  and  S1_28 
REMARK    8  A    between atoms: C2_20  and  O2_22 
ROOT
ATOM      1  O4  SGN d   1     -37.409  29.575 -30.584  0.00  0.00    -0.326 OA
ENDROOT
BRANCH   1   2
ATOM      2  C1  IDS d   2     -37.496  29.711 -29.159  0.00  0.00     0.268 C 
ATOM      3  C2  IDS d   2     -36.437  30.697 -28.692  0.00  0.00     0.224 C 
ATOM      4  C3  IDS d   2     -36.785  31.183 -27.295  0.00  0.00     0.189 C 
ATOM      5  C4  IDS d   2     -38.072  31.987 -27.376  0.00  0.00     0.077 C 
ATOM      6  O3  IDS d   2     -35.729  32.023 -26.806  0.00  0.00    -0.221 OA
ATOM      7  C5  IDS d   2     -38.838  31.580 -28.625  0.00  0.00     0.207 C 
ATOM      8  O5  IDS d   2     -38.805  30.152 -28.758  0.00  0.00    -0.320 OA
ATOM      9  O2  IDS d   2     -35.148  30.066 -28.711  0.00  0.00    -0.233 OA
ATOM     10  S   IDS d   2     -34.309  30.188 -29.869  0.00  0.00     0.252 S 
ATOM     11  O3S IDS d   2     -34.184  31.665 -30.253  0.00  0.00    -0.572 OA
ATOM     12  O1S IDS d   2     -32.922  29.624 -29.554  0.00  0.00    -0.572 OA
ATOM     13  O2S IDS d   2     -34.923  29.409 -31.032  0.00  0.00    -0.572 OA
ATOM     14  C6  IDS d   2     -40.290  32.045 -28.500  0.00  0.00     0.214 C 
ATOM     15  O61 IDS d   2     -41.083  31.271 -27.925  0.00  0.00    -0.646 OA
ATOM     16  O62 IDS d   2     -40.568  33.175 -28.961  0.00  0.00    -0.646 OA
ENDBRANCH 1 2
BRANCH   1  17
ATOM     17  C4  SGN d   1     -38.440  28.709 -31.084  0.00  0.00     0.180 C 
ATOM     18  C3  SGN d   1     -39.086  29.357 -32.298  0.00  0.00     0.210 C 
ATOM     19  O3  SGN d   1     -39.776  30.547 -31.889  0.00  0.00    -0.218 OA
ATOM     20  C2  SGN d   1     -40.074  28.393 -32.934  0.00  0.00     0.210 C 
ATOM     21  C1  SGN d   1     -39.366  27.084 -33.245  0.00  0.00     0.295 C 
ATOM     22  O1  SGN d   1     -38.288  27.328 -34.162  0.00  0.00    -0.188 OA
ATOM     23  O5  SGN d   1     -38.846  26.519 -32.032  0.00  0.00    -0.325 OA
ATOM     24  C5  SGN d   1     -37.832  27.374 -31.484  0.00  0.00     0.181 C 
ATOM     25  N   SGN d   1     -40.655  28.986 -34.148  0.00  0.00    -0.162 NA
ATOM     26  S1  SGN d   1     -41.448  27.852 -35.011  0.00  0.00     0.227 S 
ATOM     27  O2S SGN d   1     -40.447  27.014 -35.810  0.00  0.00    -0.577 OA
ATOM     28  O3S SGN d   1     -42.236  26.952 -34.058  0.00  0.00    -0.577 OA
ATOM     29  O1S SGN d   1     -42.418  28.537 -35.977  0.00  0.00    -0.577 OA
ATOM     30  C6  SGN d   1     -37.211  26.706 -30.269  0.00  0.00     0.214 C 
ATOM     31  O6  SGN d   1     -36.642  25.450 -30.651  0.00  0.00    -0.218 OA
ENDBRANCH   1  17
TORSDOF 8
ENDMDL
MODEL 47
REMARK VINA RESULT:      -2.2      3.190      6.039
REMARK  8 active torsions:
REMARK  status: ('A' for Active; 'I' for Inactive)
REMARK    1  A    between atoms: C6_1  and  C5_27 
REMARK    2  A    between atoms: C6_4  and  C5_23 
REMARK    3  A    between atoms: C1_7  and  O1_9 
REMARK    4  A    between atoms: O1_9  and  C4_31 
REMARK    5  A    between atoms: S_13  and  O2_22 
REMARK    6  A    between atoms: N_19  and  C2_25 
REMARK    7  A    between atoms: N_19  and  S1_28 
REMARK    8  A    between atoms: C2_20  and  O2_22 
ROOT
ATOM      1  O4  SGN d   1     -38.577  28.893 -28.800  0.00  0.00    -0.326 OA
ENDROOT
BRANCH   1   2
ATOM      2  C1  IDS d   2     -38.239  28.834 -27.407  0.00  0.00     0.268 C 
ATOM      3  C2  IDS d   2     -38.628  30.149 -26.750  0.00  0.00     0.224 C 
ATOM      4  C3  IDS d   2     -38.690  29.957 -25.244  0.00  0.00     0.189 C 
ATOM      5  C4  IDS d   2     -39.829  29.000 -24.931  0.00  0.00     0.077 C 
ATOM      6  O3  IDS d   2     -38.944  31.221 -24.612  0.00  0.00    -0.221 OA
ATOM      7  C5  IDS d   2     -40.131  28.162 -26.163  0.00  0.00     0.207 C 
ATOM      8  O5  IDS d   2     -38.898  27.733 -26.758  0.00  0.00    -0.320 OA
ATOM      9  O2  IDS d   2     -37.676  31.164 -27.099  0.00  0.00    -0.233 OA
ATOM     10  S   IDS d   2     -37.920  32.015 -28.230  0.00  0.00     0.252 S 
ATOM     11  O3S IDS d   2     -39.323  32.616 -28.120  0.00  0.00    -0.572 OA
ATOM     12  O1S IDS d   2     -36.883  33.139 -28.253  0.00  0.00    -0.572 OA
ATOM     13  O2S IDS d   2     -37.814  31.198 -29.518  0.00  0.00    -0.572 OA
ATOM     14  C6  IDS d   2     -40.950  26.937 -25.753  0.00  0.00     0.214 C 
ATOM     15  O61 IDS d   2     -40.311  25.928 -25.387  0.00  0.00    -0.646 OA
ATOM     16  O62 IDS d   2     -42.196  27.047 -25.789  0.00  0.00    -0.646 OA
ENDBRANCH 1 2
BRANCH   1  17
ATOM     17  C4  SGN d   1     -38.096  27.734 -29.497  0.00  0.00     0.180 C 
ATOM     18  C3  SGN d   1     -39.120  27.324 -30.542  0.00  0.00     0.210 C 
ATOM     19  O3  SGN d   1     -40.317  26.882 -29.884  0.00  0.00    -0.218 OA
ATOM     20  C2  SGN d   1     -38.566  26.193 -31.394  0.00  0.00     0.210 C 
ATOM     21  C1  SGN d   1     -37.231  26.620 -31.983  0.00  0.00     0.295 C 
ATOM     22  O1  SGN d   1     -37.420  27.782 -32.806  0.00  0.00    -0.188 OA
ATOM     23  O5  SGN d   1     -36.314  26.926 -30.923  0.00  0.00    -0.325 OA
ATOM     24  C5  SGN d   1     -36.778  28.064 -30.180  0.00  0.00     0.181 C 
ATOM     25  N   SGN d   1     -39.524  25.834 -32.450  0.00  0.00    -0.162 NA
ATOM     26  S1  SGN d   1     -38.814  24.872 -33.559  0.00  0.00     0.227 S 
ATOM     27  O2S SGN d   1     -37.966  25.717 -34.512  0.00  0.00    -0.577 OA
ATOM     28  O3S SGN d   1     -37.929  23.848 -32.846  0.00  0.00    -0.577 OA
ATOM     29  O1S SGN d   1     -39.892  24.138 -34.358  0.00  0.00    -0.577 OA
ATOM     30  C6  SGN d   1     -35.739  28.445 -29.140  0.00  0.00     0.214 C 
ATOM     31  O6  SGN d   1     -34.501  28.753 -29.788  0.00  0.00    -0.218 OA
ENDBRANCH   1  17
TORSDOF 8
ENDMDL
MODEL 48
REMARK VINA RESULT:      -2.2      3.591      6.788
REMARK  8 active torsions:
REMARK  status: ('A' for Active; 'I' for Inactive)
REMARK    1  A    between atoms: C6_1  and  C5_27 
REMARK    2  A    between atoms: C6_4  and  C5_23 
REMARK    3  A    between atoms: C1_7  and  O1_9 
REMARK    4  A    between atoms: O1_9  and  C4_31 
REMARK    5  A    between atoms: S_13  and  O2_22 
REMARK    6  A    between atoms: N_19  and  C2_25 
REMARK    7  A    between atoms: N_19  and  S1_28 
REMARK    8  A    between atoms: C2_20  and  O2_22 
ROOT
ATOM      1  O4  SGN d   1     -40.387  27.377 -31.619  0.00  0.00    -0.326 OA
ENDROOT
BRANCH   1   2
ATOM      2  C1  IDS d   2     -39.231  26.560 -31.387  0.00  0.00     0.268 C 
ATOM      3  C2  IDS d   2     -39.428  25.220 -32.079  0.00  0.00     0.224 C 
ATOM      4  C3  IDS d   2     -38.083  24.528 -32.221  0.00  0.00     0.189 C 
ATOM      5  C4  IDS d   2     -37.222  25.345 -33.170  0.00  0.00     0.077 C 
ATOM      6  O3  IDS d   2     -38.278  23.214 -32.768  0.00  0.00    -0.221 OA
ATOM      7  C5  IDS d   2     -37.735  26.777 -33.201  0.00  0.00     0.207 C 
ATOM      8  O5  IDS d   2     -38.037  27.202 -31.865  0.00  0.00    -0.320 OA
ATOM      9  O2  IDS d   2     -40.344  24.415 -31.321  0.00  0.00    -0.233 OA
ATOM     10  S   IDS d   2     -41.743  24.434 -31.638  0.00  0.00     0.252 S 
ATOM     11  O3S IDS d   2     -41.929  24.184 -33.136  0.00  0.00    -0.572 OA
ATOM     12  O1S IDS d   2     -42.459  23.339 -30.845  0.00  0.00    -0.572 OA
ATOM     13  O2S IDS d   2     -42.334  25.796 -31.271  0.00  0.00    -0.572 OA
ATOM     14  C6  IDS d   2     -36.656  27.686 -33.792  0.00  0.00     0.214 C 
ATOM     15  O61 IDS d   2     -35.810  28.148 -32.998  0.00  0.00    -0.646 OA
ATOM     16  O62 IDS d   2     -36.686  27.877 -35.028  0.00  0.00    -0.646 OA
ENDBRANCH 1 2
BRANCH   1  17
ATOM     17  C4  SGN d   1     -40.132  28.745 -31.265  0.00  0.00     0.180 C 
ATOM     18  C3  SGN d   1     -40.628  29.647 -32.383  0.00  0.00     0.210 C 
ATOM     19  O3  SGN d   1     -39.839  29.421 -33.560  0.00  0.00    -0.218 OA
ATOM     20  C2  SGN d   1     -40.507  31.103 -31.965  0.00  0.00     0.210 C 
ATOM     21  C1  SGN d   1     -41.237  31.307 -30.647  0.00  0.00     0.295 C 
ATOM     22  O1  SGN d   1     -42.625  30.978 -30.811  0.00  0.00    -0.188 OA
ATOM     23  O5  SGN d   1     -40.657  30.462 -29.642  0.00  0.00    -0.325 OA
ATOM     24  C5  SGN d   1     -40.865  29.082 -29.977  0.00  0.00     0.181 C 
ATOM     25  N   SGN d   1     -41.047  31.981 -33.014  0.00  0.00    -0.162 NA
ATOM     26  S1  SGN d   1     -41.230  33.500 -32.447  0.00  0.00     0.227 S 
ATOM     27  O2S SGN d   1     -42.508  33.589 -31.609  0.00  0.00    -0.577 OA
ATOM     28  O3S SGN d   1     -40.019  33.866 -31.587  0.00  0.00    -0.577 OA
ATOM     29  O1S SGN d   1     -41.328  34.472 -33.623  0.00  0.00    -0.577 OA
ATOM     30  C6  SGN d   1     -40.352  28.206 -28.847  0.00  0.00     0.214 C 
ATOM     31  O6  SGN d   1     -41.046  28.527 -27.638  0.00  0.00    -0.218 OA
ENDBRANCH   1  17
TORSDOF 8
ENDMDL
MODEL 49
REMARK VINA RESULT:      -2.2      3.003      4.573
REMARK  8 active torsions:
REMARK  status: ('A' for Active; 'I' for Inactive)
REMARK    1  A    between atoms: C6_1  and  C5_27 
REMARK    2  A    between atoms: C6_4  and  C5_23 
REMARK    3  A    between atoms: C1_7  and  O1_9 
REMARK    4  A    between atoms: O1_9  and  C4_31 
REMARK    5  A    between atoms: S_13  and  O2_22 
REMARK    6  A    between atoms: N_19  and  C2_25 
REMARK    7  A    between atoms: N_19  and  S1_28 
REMARK    8  A    between atoms: C2_20  and  O2_22 
ROOT
ATOM      1  O4  SGN d   1     -39.686  29.578 -29.972  0.00  0.00    -0.326 OA
ENDROOT
BRANCH   1   2
ATOM      2  C1  IDS d   2     -38.849  30.740 -29.896  0.00  0.00     0.268 C 
ATOM      3  C2  IDS d   2     -39.054  31.408 -28.545  0.00  0.00     0.224 C 
ATOM      4  C3  IDS d   2     -37.896  32.351 -28.272  0.00  0.00     0.189 C 
ATOM      5  C4  IDS d   2     -36.630  31.524 -28.121  0.00  0.00     0.077 C 
ATOM      6  O3  IDS d   2     -38.142  33.069 -27.052  0.00  0.00    -0.221 OA
ATOM      7  C5  IDS d   2     -36.822  30.186 -28.819  0.00  0.00     0.207 C 
ATOM      8  O5  IDS d   2     -37.466  30.399 -30.083  0.00  0.00    -0.320 OA
ATOM      9  O2  IDS d   2     -40.305  32.113 -28.539  0.00  0.00    -0.233 OA
ATOM     10  S   IDS d   2     -41.489  31.465 -28.051  0.00  0.00     0.252 S 
ATOM     11  O3S IDS d   2     -41.209  30.867 -26.671  0.00  0.00    -0.572 OA
ATOM     12  O1S IDS d   2     -42.621  32.488 -27.944  0.00  0.00    -0.572 OA
ATOM     13  O2S IDS d   2     -41.899  30.352 -29.017  0.00  0.00    -0.572 OA
ATOM     14  C6  IDS d   2     -35.457  29.535 -29.046  0.00  0.00     0.214 C 
ATOM     15  O61 IDS d   2     -34.853  29.843 -30.094  0.00  0.00    -0.646 OA
ATOM     16  O62 IDS d   2     -35.038  28.764 -28.154  0.00  0.00    -0.646 OA
ENDBRANCH 1 2
BRANCH   1  17
ATOM     17  C4  SGN d   1     -39.351  28.775 -31.113  0.00  0.00     0.180 C 
ATOM     18  C3  SGN d   1     -39.219  27.324 -30.678  0.00  0.00     0.210 C 
ATOM     19  O3  SGN d   1     -38.094  27.194 -29.797  0.00  0.00    -0.218 OA
ATOM     20  C2  SGN d   1     -39.015  26.436 -31.894  0.00  0.00     0.210 C 
ATOM     21  C1  SGN d   1     -40.144  26.675 -32.884  0.00  0.00     0.295 C 
ATOM     22  O1  SGN d   1     -41.400  26.350 -32.268  0.00  0.00    -0.188 OA
ATOM     23  O5  SGN d   1     -40.147  28.054 -33.284  0.00  0.00    -0.325 OA
ATOM     24  C5  SGN d   1     -40.449  28.894 -32.158  0.00  0.00     0.181 C 
ATOM     25  N   SGN d   1     -38.954  25.023 -31.489  0.00  0.00    -0.162 NA
ATOM     26  S1  SGN d   1     -39.072  24.051 -32.793  0.00  0.00     0.227 S 
ATOM     27  O2S SGN d   1     -40.536  23.940 -33.226  0.00  0.00    -0.577 OA
ATOM     28  O3S SGN d   1     -38.235  24.633 -33.933  0.00  0.00    -0.577 OA
ATOM     29  O1S SGN d   1     -38.544  22.660 -32.438  0.00  0.00    -0.577 OA
ATOM     30  C6  SGN d   1     -40.565  30.335 -32.622  0.00  0.00     0.214 C 
ATOM     31  O6  SGN d   1     -41.599  30.442 -33.605  0.00  0.00    -0.218 OA
ENDBRANCH   1  17
TORSDOF 8
ENDMDL
MODEL 50
REMARK VINA RESULT:      -2.1      3.968      6.426
REMARK  8 active torsions:
REMARK  status: ('A' for Active; 'I' for Inactive)
REMARK    1  A    between atoms: C6_1  and  C5_27 
REMARK    2  A    between atoms: C6_4  and  C5_23 
REMARK    3  A    between atoms: C1_7  and  O1_9 
REMARK    4  A    between atoms: O1_9  and  C4_31 
REMARK    5  A    between atoms: S_13  and  O2_22 
REMARK    6  A    between atoms: N_19  and  C2_25 
REMARK    7  A    between atoms: N_19  and  S1_28 
REMARK    8  A    between atoms: C2_20  and  O2_22 
ROOT
ATOM      1  O4  SGN d   1     -35.779  29.237 -27.475  0.00  0.00    -0.326 OA
ENDROOT
BRANCH   1   2
ATOM      2  C1  IDS d   2     -36.232  30.174 -26.488  0.00  0.00     0.268 C 
ATOM      3  C2  IDS d   2     -35.041  30.632 -25.661  0.00  0.00     0.224 C 
ATOM      4  C3  IDS d   2     -35.404  31.913 -24.928  0.00  0.00     0.189 C 
ATOM      5  C4  IDS d   2     -35.620  33.008 -25.959  0.00  0.00     0.077 C 
ATOM      6  O3  IDS d   2     -34.325  32.286 -24.057  0.00  0.00    -0.221 OA
ATOM      7  C5  IDS d   2     -35.951  32.373 -27.301  0.00  0.00     0.207 C 
ATOM      8  O5  IDS d   2     -36.882  31.300 -27.100  0.00  0.00    -0.320 OA
ATOM      9  O2  IDS d   2     -34.668  29.599 -24.737  0.00  0.00    -0.233 OA
ATOM     10  S   IDS d   2     -33.656  28.647 -25.098  0.00  0.00     0.252 S 
ATOM     11  O3S IDS d   2     -32.414  29.390 -25.595  0.00  0.00    -0.572 OA
ATOM     12  O1S IDS d   2     -33.291  27.804 -23.875  0.00  0.00    -0.572 OA
ATOM     13  O2S IDS d   2     -34.183  27.735 -26.207  0.00  0.00    -0.572 OA
ATOM     14  C6  IDS d   2     -36.579  33.426 -28.216  0.00  0.00     0.214 C 
ATOM     15  O61 IDS d   2     -37.816  33.580 -28.134  0.00  0.00    -0.646 OA
ATOM     16  O62 IDS d   2     -35.804  34.071 -28.957  0.00  0.00    -0.646 OA
ENDBRANCH 1 2
BRANCH   1  17
ATOM     17  C4  SGN d   1     -36.728  29.115 -28.545  0.00  0.00     0.180 C 
ATOM     18  C3  SGN d   1     -35.978  28.976 -29.860  0.00  0.00     0.210 C 
ATOM     19  O3  SGN d   1     -35.273  30.196 -30.134  0.00  0.00    -0.218 OA
ATOM     20  C2  SGN d   1     -36.958  28.694 -30.987  0.00  0.00     0.210 C 
ATOM     21  C1  SGN d   1     -37.793  27.475 -30.630  0.00  0.00     0.295 C 
ATOM     22  O1  SGN d   1     -36.933  26.338 -30.457  0.00  0.00    -0.188 OA
ATOM     23  O5  SGN d   1     -38.511  27.725 -29.412  0.00  0.00    -0.325 OA
ATOM     24  C5  SGN d   1     -37.591  27.884 -28.321  0.00  0.00     0.181 C 
ATOM     25  N   SGN d   1     -36.235  28.492 -32.252  0.00  0.00    -0.162 NA
ATOM     26  S1  SGN d   1     -37.230  27.866 -33.383  0.00  0.00     0.227 S 
ATOM     27  O2S SGN d   1     -37.396  26.362 -33.151  0.00  0.00    -0.577 OA
ATOM     28  O3S SGN d   1     -38.591  28.559 -33.296  0.00  0.00    -0.577 OA
ATOM     29  O1S SGN d   1     -36.631  28.100 -34.771  0.00  0.00    -0.577 OA
ATOM     30  C6  SGN d   1     -38.369  28.029 -27.024  0.00  0.00     0.214 C 
ATOM     31  O6  SGN d   1     -39.180  26.868 -26.818  0.00  0.00    -0.218 OA
ENDBRANCH   1  17
TORSDOF 8
ENDMDL
MODEL 51
REMARK VINA RESULT:      -2.1      3.356      5.381
REMARK  8 active torsions:
REMARK  status: ('A' for Active; 'I' for Inactive)
REMARK    1  A    between atoms: C6_1  and  C5_27 
REMARK    2  A    between atoms: C6_4  and  C5_23 
REMARK    3  A    between atoms: C1_7  and  O1_9 
REMARK    4  A    between atoms: O1_9  and  C4_31 
REMARK    5  A    between atoms: S_13  and  O2_22 
REMARK    6  A    between atoms: N_19  and  C2_25 
REMARK    7  A    between atoms: N_19  and  S1_28 
REMARK    8  A    between atoms: C2_20  and  O2_22 
ROOT
ATOM      1  O4  SGN d   1     -38.252  29.207 -28.410  0.00  0.00    -0.326 OA
ENDROOT
BRANCH   1   2
ATOM      2  C1  IDS d   2     -37.581  30.441 -28.120  0.00  0.00     0.268 C 
ATOM      3  C2  IDS d   2     -37.940  30.877 -26.708  0.00  0.00     0.224 C 
ATOM      4  C3  IDS d   2     -36.931  31.908 -26.231  0.00  0.00     0.189 C 
ATOM      5  C4  IDS d   2     -35.577  31.230 -26.108  0.00  0.00     0.077 C 
ATOM      6  O3  IDS d   2     -37.331  32.407 -24.945  0.00  0.00    -0.221 OA
ATOM      7  C5  IDS d   2     -35.556  29.993 -26.992  0.00  0.00     0.207 C 
ATOM      8  O5  IDS d   2     -36.157  30.304 -28.257  0.00  0.00    -0.320 OA
ATOM      9  O2  IDS d   2     -39.271  31.415 -26.692  0.00  0.00    -0.233 OA
ATOM     10  S   IDS d   2     -40.383  30.562 -26.379  0.00  0.00     0.252 S 
ATOM     11  O3S IDS d   2     -40.096  29.811 -25.077  0.00  0.00    -0.572 OA
ATOM     12  O1S IDS d   2     -41.644  31.412 -26.211  0.00  0.00    -0.572 OA
ATOM     13  O2S IDS d   2     -40.593  29.557 -27.512  0.00  0.00    -0.572 OA
ATOM     14  C6  IDS d   2     -34.106  29.555 -27.212  0.00  0.00     0.214 C 
ATOM     15  O61 IDS d   2     -33.496  30.082 -28.165  0.00  0.00    -0.646 OA
ATOM     16  O62 IDS d   2     -33.635  28.722 -26.407  0.00  0.00    -0.646 OA
ENDBRANCH 1 2
BRANCH   1  17
ATOM     17  C4  SGN d   1     -38.068  28.830 -29.783  0.00  0.00     0.180 C 
ATOM     18  C3  SGN d   1     -37.884  27.323 -29.862  0.00  0.00     0.210 C 
ATOM     19  O3  SGN d   1     -36.654  26.962 -29.216  0.00  0.00    -0.218 OA
ATOM     20  C2  SGN d   1     -37.839  26.884 -31.317  0.00  0.00     0.210 C 
ATOM     21  C1  SGN d   1     -39.085  27.384 -32.028  0.00  0.00     0.295 C 
ATOM     22  O1  SGN d   1     -40.252  26.827 -31.403  0.00  0.00    -0.188 OA
ATOM     23  O5  SGN d   1     -39.138  28.817 -31.955  0.00  0.00    -0.325 OA
ATOM     24  C5  SGN d   1     -39.291  29.235 -30.590  0.00  0.00     0.181 C 
ATOM     25  N   SGN d   1     -37.728  25.420 -31.404  0.00  0.00    -0.162 NA
ATOM     26  S1  SGN d   1     -38.014  24.916 -32.928  0.00  0.00     0.227 S 
ATOM     27  O2S SGN d   1     -39.521  24.892 -33.191  0.00  0.00    -0.577 OA
ATOM     28  O3S SGN d   1     -37.330  25.869 -33.910  0.00  0.00    -0.577 OA
ATOM     29  O1S SGN d   1     -37.446  23.508 -33.112  0.00  0.00    -0.577 OA
ATOM     30  C6  SGN d   1     -39.464  30.743 -30.541  0.00  0.00     0.214 C 
ATOM     31  O6  SGN d   1     -40.616  31.119 -31.302  0.00  0.00    -0.218 OA
ENDBRANCH   1  17
TORSDOF 8
ENDMDL
MODEL 52
REMARK VINA RESULT:      -2.1      2.923      5.662
REMARK  8 active torsions:
REMARK  status: ('A' for Active; 'I' for Inactive)
REMARK    1  A    between atoms: C6_1  and  C5_27 
REMARK    2  A    between atoms: C6_4  and  C5_23 
REMARK    3  A    between atoms: C1_7  and  O1_9 
REMARK    4  A    between atoms: O1_9  and  C4_31 
REMARK    5  A    between atoms: S_13  and  O2_22 
REMARK    6  A    between atoms: N_19  and  C2_25 
REMARK    7  A    between atoms: N_19  and  S1_28 
REMARK    8  A    between atoms: C2_20  and  O2_22 
ROOT
ATOM      1  O4  SGN d   1     -39.091  28.667 -30.062  0.00  0.00    -0.326 OA
ENDROOT
BRANCH   1   2
ATOM      2  C1  IDS d   2     -38.579  28.047 -28.874  0.00  0.00     0.268 C 
ATOM      3  C2  IDS d   2     -38.430  29.105 -27.792  0.00  0.00     0.224 C 
ATOM      4  C3  IDS d   2     -38.318  28.424 -26.438  0.00  0.00     0.189 C 
ATOM      5  C4  IDS d   2     -39.638  27.731 -26.141  0.00  0.00     0.077 C 
ATOM      6  O3  IDS d   2     -38.061  29.411 -25.428  0.00  0.00    -0.221 OA
ATOM      7  C5  IDS d   2     -40.372  27.475 -27.448  0.00  0.00     0.207 C 
ATOM      8  O5  IDS d   2     -39.443  26.989 -28.426  0.00  0.00    -0.320 OA
ATOM      9  O2  IDS d   2     -37.272  29.910 -28.060  0.00  0.00    -0.233 OA
ATOM     10  S   IDS d   2     -37.406  31.131 -28.801  0.00  0.00     0.252 S 
ATOM     11  O3S IDS d   2     -38.515  31.984 -28.180  0.00  0.00    -0.572 OA
ATOM     12  O1S IDS d   2     -36.085  31.901 -28.757  0.00  0.00    -0.572 OA
ATOM     13  O2S IDS d   2     -37.761  30.813 -30.254  0.00  0.00    -0.572 OA
ATOM     14  C6  IDS d   2     -41.462  26.426 -27.216  0.00  0.00     0.214 C 
ATOM     15  O61 IDS d   2     -41.125  25.229 -27.326  0.00  0.00    -0.646 OA
ATOM     16  O62 IDS d   2     -42.600  26.846 -26.910  0.00  0.00    -0.646 OA
ENDBRANCH 1 2
BRANCH   1  17
ATOM     17  C4  SGN d   1     -39.046  27.763 -31.176  0.00  0.00     0.180 C 
ATOM     18  C3  SGN d   1     -40.341  27.881 -31.964  0.00  0.00     0.210 C 
ATOM     19  O3  SGN d   1     -41.430  27.411 -31.157  0.00  0.00    -0.218 OA
ATOM     20  C2  SGN d   1     -40.253  27.047 -33.231  0.00  0.00     0.210 C 
ATOM     21  C1  SGN d   1     -39.021  27.461 -34.018  0.00  0.00     0.295 C 
ATOM     22  O1  SGN d   1     -39.122  28.849 -34.374  0.00  0.00    -0.188 OA
ATOM     23  O5  SGN d   1     -37.848  27.254 -33.218  0.00  0.00    -0.325 OA
ATOM     24  C5  SGN d   1     -37.872  28.121 -32.073  0.00  0.00     0.181 C 
ATOM     25  N   SGN d   1     -41.476  27.208 -34.032  0.00  0.00    -0.162 NA
ATOM     26  S1  SGN d   1     -41.261  26.596 -35.529  0.00  0.00     0.227 S 
ATOM     27  O2S SGN d   1     -40.477  27.591 -36.388  0.00  0.00    -0.577 OA
ATOM     28  O3S SGN d   1     -40.491  25.278 -35.429  0.00  0.00    -0.577 OA
ATOM     29  O1S SGN d   1     -42.624  26.337 -36.172  0.00  0.00    -0.577 OA
ATOM     30  C6  SGN d   1     -36.571  27.975 -31.303  0.00  0.00     0.214 C 
ATOM     31  O6  SGN d   1     -35.469  28.312 -32.152  0.00  0.00    -0.218 OA
ENDBRANCH   1  17
TORSDOF 8
ENDMDL
MODEL 53
REMARK VINA RESULT:      -2.1      4.032      8.015
REMARK  8 active torsions:
REMARK  status: ('A' for Active; 'I' for Inactive)
REMARK    1  A    between atoms: C6_1  and  C5_27 
REMARK    2  A    between atoms: C6_4  and  C5_23 
REMARK    3  A    between atoms: C1_7  and  O1_9 
REMARK    4  A    between atoms: O1_9  and  C4_31 
REMARK    5  A    between atoms: S_13  and  O2_22 
REMARK    6  A    between atoms: N_19  and  C2_25 
REMARK    7  A    between atoms: N_19  and  S1_28 
REMARK    8  A    between atoms: C2_20  and  O2_22 
ROOT
ATOM      1  O4  SGN d   1     -37.649  29.366 -28.528  0.00  0.00    -0.326 OA
ENDROOT
BRANCH   1   2
ATOM      2  C1  IDS d   2     -38.268  28.128 -28.904  0.00  0.00     0.268 C 
ATOM      3  C2  IDS d   2     -39.756  28.365 -29.114  0.00  0.00     0.224 C 
ATOM      4  C3  IDS d   2     -40.338  27.215 -29.917  0.00  0.00     0.189 C 
ATOM      5  C4  IDS d   2     -39.728  27.246 -31.308  0.00  0.00     0.077 C 
ATOM      6  O3  IDS d   2     -41.762  27.376 -30.018  0.00  0.00    -0.221 OA
ATOM      7  C5  IDS d   2     -38.408  28.000 -31.258  0.00  0.00     0.207 C 
ATOM      8  O5  IDS d   2     -37.673  27.590 -30.097  0.00  0.00    -0.320 OA
ATOM      9  O2  IDS d   2     -40.409  28.487 -27.841  0.00  0.00    -0.233 OA
ATOM     10  S   IDS d   2     -40.601  29.784 -27.257  0.00  0.00     0.252 S 
ATOM     11  O3S IDS d   2     -41.255  30.712 -28.283  0.00  0.00    -0.572 OA
ATOM     12  O1S IDS d   2     -41.505  29.661 -26.030  0.00  0.00    -0.572 OA
ATOM     13  O2S IDS d   2     -39.248  30.361 -26.836  0.00  0.00    -0.572 OA
ATOM     14  C6  IDS d   2     -37.596  27.678 -32.514  0.00  0.00     0.214 C 
ATOM     15  O61 IDS d   2     -36.866  26.666 -32.470  0.00  0.00    -0.646 OA
ATOM     16  O62 IDS d   2     -37.743  28.438 -33.497  0.00  0.00    -0.646 OA
ENDBRANCH 1 2
BRANCH   1  17
ATOM     17  C4  SGN d   1     -36.220  29.283 -28.639  0.00  0.00     0.180 C 
ATOM     18  C3  SGN d   1     -35.699  30.553 -29.292  0.00  0.00     0.210 C 
ATOM     19  O3  SGN d   1     -36.168  30.616 -30.647  0.00  0.00    -0.218 OA
ATOM     20  C2  SGN d   1     -34.179  30.553 -29.282  0.00  0.00     0.210 C 
ATOM     21  C1  SGN d   1     -33.688  30.354 -27.858  0.00  0.00     0.295 C 
ATOM     22  O1  SGN d   1     -34.165  31.428 -27.031  0.00  0.00    -0.188 OA
ATOM     23  O5  SGN d   1     -34.178  29.104 -27.351  0.00  0.00    -0.325 OA
ATOM     24  C5  SGN d   1     -35.610  29.137 -27.254  0.00  0.00     0.181 C 
ATOM     25  N   SGN d   1     -33.666  31.808 -29.852  0.00  0.00    -0.162 NA
ATOM     26  S1  SGN d   1     -32.072  31.964 -29.544  0.00  0.00     0.227 S 
ATOM     27  O2S SGN d   1     -31.867  32.445 -28.106  0.00  0.00    -0.577 OA
ATOM     28  O3S SGN d   1     -31.386  30.611 -29.741  0.00  0.00    -0.577 OA
ATOM     29  O1S SGN d   1     -31.466  32.984 -30.509  0.00  0.00    -0.577 OA
ATOM     30  C6  SGN d   1     -36.101  27.853 -26.607  0.00  0.00     0.214 C 
ATOM     31  O6  SGN d   1     -35.524  27.721 -25.305  0.00  0.00    -0.218 OA
ENDBRANCH   1  17
TORSDOF 8
ENDMDL
MODEL 54
REMARK VINA RESULT:      -2.1      3.831      5.709
REMARK  8 active torsions:
REMARK  status: ('A' for Active; 'I' for Inactive)
REMARK    1  A    between atoms: C6_1  and  C5_27 
REMARK    2  A    between atoms: C6_4  and  C5_23 
REMARK    3  A    between atoms: C1_7  and  O1_9 
REMARK    4  A    between atoms: O1_9  and  C4_31 
REMARK    5  A    between atoms: S_13  and  O2_22 
REMARK    6  A    between atoms: N_19  and  C2_25 
REMARK    7  A    between atoms: N_19  and  S1_28 
REMARK    8  A    between atoms: C2_20  and  O2_22 
ROOT
ATOM      1  O4  SGN d   1     -38.539  30.004 -28.299  0.00  0.00    -0.326 OA
ENDROOT
BRANCH   1   2
ATOM      2  C1  IDS d   2     -39.668  30.671 -27.717  0.00  0.00     0.268 C 
ATOM      3  C2  IDS d   2     -39.170  31.668 -26.682  0.00  0.00     0.224 C 
ATOM      4  C3  IDS d   2     -40.273  32.670 -26.382  0.00  0.00     0.189 C 
ATOM      5  C4  IDS d   2     -40.530  33.489 -27.636  0.00  0.00     0.077 C 
ATOM      6  O3  IDS d   2     -39.849  33.542 -25.323  0.00  0.00    -0.221 OA
ATOM      7  C5  IDS d   2     -40.050  32.708 -28.849  0.00  0.00     0.207 C 
ATOM      8  O5  IDS d   2     -40.452  31.337 -28.721  0.00  0.00    -0.320 OA
ATOM      9  O2  IDS d   2     -38.770  30.971 -25.493  0.00  0.00    -0.233 OA
ATOM     10  S   IDS d   2     -37.400  30.580 -25.321  0.00  0.00     0.252 S 
ATOM     11  O3S IDS d   2     -36.492  31.788 -25.560  0.00  0.00    -0.572 OA
ATOM     12  O1S IDS d   2     -37.195  30.062 -23.896  0.00  0.00    -0.572 OA
ATOM     13  O2S IDS d   2     -37.053  29.475 -26.319  0.00  0.00    -0.572 OA
ATOM     14  C6  IDS d   2     -40.673  33.305 -30.112  0.00  0.00     0.214 C 
ATOM     15  O61 IDS d   2     -41.796  32.872 -30.445  0.00  0.00    -0.646 OA
ATOM     16  O62 IDS d   2     -40.024  34.198 -30.700  0.00  0.00    -0.646 OA
ENDBRANCH 1 2
BRANCH   1  17
ATOM     17  C4  SGN d   1     -38.935  29.209 -29.427  0.00  0.00     0.180 C 
ATOM     18  C3  SGN d   1     -37.840  29.262 -30.480  0.00  0.00     0.210 C 
ATOM     19  O3  SGN d   1     -37.741  30.599 -30.992  0.00  0.00    -0.218 OA
ATOM     20  C2  SGN d   1     -38.169  28.308 -31.616  0.00  0.00     0.210 C 
ATOM     21  C1  SGN d   1     -38.403  26.917 -31.050  0.00  0.00     0.295 C 
ATOM     22  O1  SGN d   1     -37.214  26.464 -30.383  0.00  0.00    -0.188 OA
ATOM     23  O5  SGN d   1     -39.493  26.956 -30.117  0.00  0.00    -0.325 OA
ATOM     24  C5  SGN d   1     -39.146  27.769 -28.985  0.00  0.00     0.181 C 
ATOM     25  N   SGN d   1     -37.083  28.303 -32.608  0.00  0.00    -0.162 NA
ATOM     26  S1  SGN d   1     -37.262  27.056 -33.644  0.00  0.00     0.227 S 
ATOM     27  O2S SGN d   1     -36.770  25.764 -32.988  0.00  0.00    -0.577 OA
ATOM     28  O3S SGN d   1     -38.739  26.919 -34.017  0.00  0.00    -0.577 OA
ATOM     29  O1S SGN d   1     -36.444  27.325 -34.908  0.00  0.00    -0.577 OA
ATOM     30  C6  SGN d   1     -40.260  27.703 -27.956  0.00  0.00     0.214 C 
ATOM     31  O6  SGN d   1     -40.454  26.346 -27.544  0.00  0.00    -0.218 OA
ENDBRANCH   1  17
TORSDOF 8
ENDMDL
MODEL 55
REMARK VINA RESULT:      -2.1      3.577      5.766
REMARK  8 active torsions:
REMARK  status: ('A' for Active; 'I' for Inactive)
REMARK    1  A    between atoms: C6_1  and  C5_27 
REMARK    2  A    between atoms: C6_4  and  C5_23 
REMARK    3  A    between atoms: C1_7  and  O1_9 
REMARK    4  A    between atoms: O1_9  and  C4_31 
REMARK    5  A    between atoms: S_13  and  O2_22 
REMARK    6  A    between atoms: N_19  and  C2_25 
REMARK    7  A    between atoms: N_19  and  S1_28 
REMARK    8  A    between atoms: C2_20  and  O2_22 
ROOT
ATOM      1  O4  SGN d   1     -36.128  29.810 -28.424  0.00  0.00    -0.326 OA
ENDROOT
BRANCH   1   2
ATOM      2  C1  IDS d   2     -35.626  31.106 -28.071  0.00  0.00     0.268 C 
ATOM      3  C2  IDS d   2     -34.988  31.029 -26.693  0.00  0.00     0.224 C 
ATOM      4  C3  IDS d   2     -34.086  32.234 -26.490  0.00  0.00     0.189 C 
ATOM      5  C4  IDS d   2     -32.930  32.137 -27.472  0.00  0.00     0.077 C 
ATOM      6  O3  IDS d   2     -33.573  32.225 -25.149  0.00  0.00    -0.221 OA
ATOM      7  C5  IDS d   2     -33.338  31.247 -28.636  0.00  0.00     0.207 C 
ATOM      8  O5  IDS d   2     -34.674  31.577 -29.040  0.00  0.00    -0.320 OA
ATOM      9  O2  IDS d   2     -36.013  30.978 -25.688  0.00  0.00    -0.233 OA
ATOM     10  S   IDS d   2     -36.477  29.709 -25.204  0.00  0.00     0.252 S 
ATOM     11  O3S IDS d   2     -35.279  28.855 -24.785  0.00  0.00    -0.572 OA
ATOM     12  O1S IDS d   2     -37.393  29.929 -23.999  0.00  0.00    -0.572 OA
ATOM     13  O2S IDS d   2     -37.254  28.992 -26.309  0.00  0.00    -0.572 OA
ATOM     14  C6  IDS d   2     -32.381  31.479 -29.807  0.00  0.00     0.214 C 
ATOM     15  O61 IDS d   2     -32.665  32.408 -30.592  0.00  0.00    -0.646 OA
ATOM     16  O62 IDS d   2     -31.375  30.739 -29.876  0.00  0.00    -0.646 OA
ENDBRANCH 1 2
BRANCH   1  17
ATOM     17  C4  SGN d   1     -36.785  29.841 -29.701  0.00  0.00     0.180 C 
ATOM     18  C3  SGN d   1     -36.413  28.590 -30.480  0.00  0.00     0.210 C 
ATOM     19  O3  SGN d   1     -35.012  28.623 -30.789  0.00  0.00    -0.218 OA
ATOM     20  C2  SGN d   1     -37.214  28.527 -31.770  0.00  0.00     0.210 C 
ATOM     21  C1  SGN d   1     -38.695  28.625 -31.444  0.00  0.00     0.295 C 
ATOM     22  O1  SGN d   1     -39.074  27.527 -30.600  0.00  0.00    -0.188 OA
ATOM     23  O5  SGN d   1     -38.958  29.864 -30.769  0.00  0.00    -0.325 OA
ATOM     24  C5  SGN d   1     -38.291  29.884 -29.497  0.00  0.00     0.181 C 
ATOM     25  N   SGN d   1     -36.910  27.287 -32.499  0.00  0.00    -0.162 NA
ATOM     26  S1  SGN d   1     -37.992  27.049 -33.696  0.00  0.00     0.227 S 
ATOM     27  O2S SGN d   1     -39.288  26.479 -33.116  0.00  0.00    -0.577 OA
ATOM     28  O3S SGN d   1     -38.275  28.382 -34.390  0.00  0.00    -0.577 OA
ATOM     29  O1S SGN d   1     -37.416  26.062 -34.712  0.00  0.00    -0.577 OA
ATOM     30  C6  SGN d   1     -38.674  31.147 -28.746  0.00  0.00     0.214 C 
ATOM     31  O6  SGN d   1     -40.092  31.182 -28.558  0.00  0.00    -0.218 OA
ENDBRANCH   1  17
TORSDOF 8
ENDMDL
MODEL 56
REMARK VINA RESULT:      -2.0      5.179      8.236
REMARK  8 active torsions:
REMARK  status: ('A' for Active; 'I' for Inactive)
REMARK    1  A    between atoms: C6_1  and  C5_27 
REMARK    2  A    between atoms: C6_4  and  C5_23 
REMARK    3  A    between atoms: C1_7  and  O1_9 
REMARK    4  A    between atoms: O1_9  and  C4_31 
REMARK    5  A    between atoms: S_13  and  O2_22 
REMARK    6  A    between atoms: N_19  and  C2_25 
REMARK    7  A    between atoms: N_19  and  S1_28 
REMARK    8  A    between atoms: C2_20  and  O2_22 
ROOT
ATOM      1  O4  SGN d   1     -37.905  29.784 -28.155  0.00  0.00    -0.326 OA
ENDROOT
BRANCH   1   2
ATOM      2  C1  IDS d   2     -39.199  29.608 -28.749  0.00  0.00     0.268 C 
ATOM      3  C2  IDS d   2     -40.238  29.506 -27.644  0.00  0.00     0.224 C 
ATOM      4  C3  IDS d   2     -41.617  29.759 -28.229  0.00  0.00     0.189 C 
ATOM      5  C4  IDS d   2     -41.678  31.201 -28.704  0.00  0.00     0.077 C 
ATOM      6  O3  IDS d   2     -42.612  29.550 -27.214  0.00  0.00    -0.221 OA
ATOM      7  C5  IDS d   2     -40.265  31.705 -28.953  0.00  0.00     0.207 C 
ATOM      8  O5  IDS d   2     -39.514  30.692 -29.638  0.00  0.00    -0.320 OA
ATOM      9  O2  IDS d   2     -40.169  28.209 -27.033  0.00  0.00    -0.233 OA
ATOM     10  S   IDS d   2     -39.359  28.012 -25.864  0.00  0.00     0.252 S 
ATOM     11  O3S IDS d   2     -39.707  29.074 -24.819  0.00  0.00    -0.572 OA
ATOM     12  O1S IDS d   2     -39.629  26.621 -25.287  0.00  0.00    -0.572 OA
ATOM     13  O2S IDS d   2     -37.881  28.129 -26.239  0.00  0.00    -0.572 OA
ATOM     14  C6  IDS d   2     -40.324  32.966 -29.817  0.00  0.00     0.214 C 
ATOM     15  O61 IDS d   2     -40.340  32.801 -31.055  0.00  0.00    -0.646 OA
ATOM     16  O62 IDS d   2     -40.377  34.064 -29.219  0.00  0.00    -0.646 OA
ENDBRANCH 1 2
BRANCH   1  17
ATOM     17  C4  SGN d   1     -36.891  29.930 -29.161  0.00  0.00     0.180 C 
ATOM     18  C3  SGN d   1     -35.938  31.039 -28.746  0.00  0.00     0.210 C 
ATOM     19  O3  SGN d   1     -36.639  32.291 -28.750  0.00  0.00    -0.218 OA
ATOM     20  C2  SGN d   1     -34.772  31.109 -29.719  0.00  0.00     0.210 C 
ATOM     21  C1  SGN d   1     -34.114  29.742 -29.810  0.00  0.00     0.295 C 
ATOM     22  O1  SGN d   1     -33.625  29.358 -28.515  0.00  0.00    -0.188 OA
ATOM     23  O5  SGN d   1     -35.072  28.777 -30.268  0.00  0.00    -0.325 OA
ATOM     24  C5  SGN d   1     -36.122  28.625 -29.300  0.00  0.00     0.181 C 
ATOM     25  N   SGN d   1     -33.811  32.136 -29.289  0.00  0.00    -0.162 NA
ATOM     26  S1  SGN d   1     -32.415  31.993 -30.120  0.00  0.00     0.227 S 
ATOM     27  O2S SGN d   1     -31.577  30.855 -29.532  0.00  0.00    -0.577 OA
ATOM     28  O3S SGN d   1     -32.730  31.701 -31.588  0.00  0.00    -0.577 OA
ATOM     29  O1S SGN d   1     -31.630  33.302 -30.022  0.00  0.00    -0.577 OA
ATOM     30  C6  SGN d   1     -37.061  27.518 -29.745  0.00  0.00     0.214 C 
ATOM     31  O6  SGN d   1     -36.332  26.293 -29.875  0.00  0.00    -0.218 OA
ENDBRANCH   1  17
TORSDOF 8
ENDMDL
MODEL 57
REMARK VINA RESULT:      -2.0      3.915      7.824
REMARK  8 active torsions:
REMARK  status: ('A' for Active; 'I' for Inactive)
REMARK    1  A    between atoms: C6_1  and  C5_27 
REMARK    2  A    between atoms: C6_4  and  C5_23 
REMARK    3  A    between atoms: C1_7  and  O1_9 
REMARK    4  A    between atoms: O1_9  and  C4_31 
REMARK    5  A    between atoms: S_13  and  O2_22 
REMARK    6  A    between atoms: N_19  and  C2_25 
REMARK    7  A    between atoms: N_19  and  S1_28 
REMARK    8  A    between atoms: C2_20  and  O2_22 
ROOT
ATOM      1  O4  SGN d   1     -38.421  29.718 -30.865  0.00  0.00    -0.326 OA
ENDROOT
BRANCH   1   2
ATOM      2  C1  IDS d   2     -39.205  28.545 -30.607  0.00  0.00     0.268 C 
ATOM      3  C2  IDS d   2     -40.313  28.456 -31.644  0.00  0.00     0.224 C 
ATOM      4  C3  IDS d   2     -40.865  27.040 -31.666  0.00  0.00     0.189 C 
ATOM      5  C4  IDS d   2     -39.773  26.109 -32.165  0.00  0.00     0.077 C 
ATOM      6  O3  IDS d   2     -41.988  26.980 -32.559  0.00  0.00    -0.221 OA
ATOM      7  C5  IDS d   2     -38.418  26.761 -31.939  0.00  0.00     0.207 C 
ATOM      8  O5  IDS d   2     -38.392  27.360 -30.636  0.00  0.00    -0.320 OA
ATOM      9  O2  IDS d   2     -41.344  29.405 -31.333  0.00  0.00    -0.233 OA
ATOM     10  S   IDS d   2     -41.317  30.711 -31.928  0.00  0.00     0.252 S 
ATOM     11  O3S IDS d   2     -41.158  30.576 -33.444  0.00  0.00    -0.572 OA
ATOM     12  O1S IDS d   2     -42.625  31.440 -31.615  0.00  0.00    -0.572 OA
ATOM     13  O2S IDS d   2     -40.142  31.508 -31.360  0.00  0.00    -0.572 OA
ATOM     14  C6  IDS d   2     -37.324  25.696 -32.031  0.00  0.00     0.214 C 
ATOM     15  O61 IDS d   2     -37.051  25.076 -30.983  0.00  0.00    -0.646 OA
ATOM     16  O62 IDS d   2     -36.804  25.510 -33.154  0.00  0.00    -0.646 OA
ENDBRANCH 1 2
BRANCH   1  17
ATOM     17  C4  SGN d   1     -37.304  29.801 -29.966  0.00  0.00     0.180 C 
ATOM     18  C3  SGN d   1     -36.106  30.362 -30.714  0.00  0.00     0.210 C 
ATOM     19  O3  SGN d   1     -35.696  29.426 -31.722  0.00  0.00    -0.218 OA
ATOM     20  C2  SGN d   1     -34.958  30.600 -29.748  0.00  0.00     0.210 C 
ATOM     21  C1  SGN d   1     -35.438  31.488 -28.611  0.00  0.00     0.295 C 
ATOM     22  O1  SGN d   1     -35.878  32.748 -29.139  0.00  0.00    -0.188 OA
ATOM     23  O5  SGN d   1     -36.524  30.847 -27.927  0.00  0.00    -0.325 OA
ATOM     24  C5  SGN d   1     -37.653  30.718 -28.805  0.00  0.00     0.181 C 
ATOM     25  N   SGN d   1     -33.817  31.206 -30.451  0.00  0.00    -0.162 NA
ATOM     26  S1  SGN d   1     -32.722  31.768 -29.381  0.00  0.00     0.227 S 
ATOM     27  O2S SGN d   1     -33.188  33.114 -28.822  0.00  0.00    -0.577 OA
ATOM     28  O3S SGN d   1     -32.565  30.759 -28.242  0.00  0.00    -0.577 OA
ATOM     29  O1S SGN d   1     -31.375  31.951 -30.082  0.00  0.00    -0.577 OA
ATOM     30  C6  SGN d   1     -38.830  30.147 -28.032  0.00  0.00     0.214 C 
ATOM     31  O6  SGN d   1     -39.153  31.013 -26.941  0.00  0.00    -0.218 OA
ENDBRANCH   1  17
TORSDOF 8
ENDMDL
MODEL 58
REMARK VINA RESULT:      -2.0      3.272      7.217
REMARK  8 active torsions:
REMARK  status: ('A' for Active; 'I' for Inactive)
REMARK    1  A    between atoms: C6_1  and  C5_27 
REMARK    2  A    between atoms: C6_4  and  C5_23 
REMARK    3  A    between atoms: C1_7  and  O1_9 
REMARK    4  A    between atoms: O1_9  and  C4_31 
REMARK    5  A    between atoms: S_13  and  O2_22 
REMARK    6  A    between atoms: N_19  and  C2_25 
REMARK    7  A    between atoms: N_19  and  S1_28 
REMARK    8  A    between atoms: C2_20  and  O2_22 
ROOT
ATOM      1  O4  SGN d   1     -39.395  28.230 -30.644  0.00  0.00    -0.326 OA
ENDROOT
BRANCH   1   2
ATOM      2  C1  IDS d   2     -39.628  27.016 -31.372  0.00  0.00     0.268 C 
ATOM      3  C2  IDS d   2     -40.951  26.418 -30.923  0.00  0.00     0.224 C 
ATOM      4  C3  IDS d   2     -41.421  25.408 -31.957  0.00  0.00     0.189 C 
ATOM      5  C4  IDS d   2     -41.735  26.152 -33.244  0.00  0.00     0.077 C 
ATOM      6  O3  IDS d   2     -42.609  24.757 -31.482  0.00  0.00    -0.221 OA
ATOM      7  C5  IDS d   2     -40.979  27.472 -33.255  0.00  0.00     0.207 C 
ATOM      8  O5  IDS d   2     -39.639  27.255 -32.790  0.00  0.00    -0.320 OA
ATOM      9  O2  IDS d   2     -40.791  25.800 -29.637  0.00  0.00    -0.233 OA
ATOM     10  S   IDS d   2     -41.078  26.546 -28.445  0.00  0.00     0.252 S 
ATOM     11  O3S IDS d   2     -42.467  27.177 -28.563  0.00  0.00    -0.572 OA
ATOM     12  O1S IDS d   2     -41.044  25.608 -27.237  0.00  0.00    -0.572 OA
ATOM     13  O2S IDS d   2     -40.031  27.646 -28.264  0.00  0.00    -0.572 OA
ATOM     14  C6  IDS d   2     -40.939  28.019 -34.683  0.00  0.00     0.214 C 
ATOM     15  O61 IDS d   2     -40.002  27.630 -35.410  0.00  0.00    -0.646 OA
ATOM     16  O62 IDS d   2     -41.862  28.793 -35.022  0.00  0.00    -0.646 OA
ENDBRANCH 1 2
BRANCH   1  17
ATOM     17  C4  SGN d   1     -38.025  28.643 -30.753  0.00  0.00     0.180 C 
ATOM     18  C3  SGN d   1     -37.831  29.929 -29.967  0.00  0.00     0.210 C 
ATOM     19  O3  SGN d   1     -38.581  30.983 -30.589  0.00  0.00    -0.218 OA
ATOM     20  C2  SGN d   1     -36.358  30.303 -29.943  0.00  0.00     0.210 C 
ATOM     21  C1  SGN d   1     -35.553  29.132 -29.404  0.00  0.00     0.295 C 
ATOM     22  O1  SGN d   1     -35.984  28.827 -28.068  0.00  0.00    -0.188 OA
ATOM     23  O5  SGN d   1     -35.750  27.986 -30.246  0.00  0.00    -0.325 OA
ATOM     24  C5  SGN d   1     -37.121  27.560 -30.187  0.00  0.00     0.181 C 
ATOM     25  N   SGN d   1     -36.152  31.510 -29.128  0.00  0.00    -0.162 NA
ATOM     26  S1  SGN d   1     -34.565  31.726 -28.820  0.00  0.00     0.227 S 
ATOM     27  O2S SGN d   1     -34.126  30.795 -27.687  0.00  0.00    -0.577 OA
ATOM     28  O3S SGN d   1     -33.760  31.420 -30.085  0.00  0.00    -0.577 OA
ATOM     29  O1S SGN d   1     -34.321  33.178 -28.405  0.00  0.00    -0.577 OA
ATOM     30  C6  SGN d   1     -37.285  26.280 -30.988  0.00  0.00     0.214 C 
ATOM     31  O6  SGN d   1     -36.432  25.265 -30.451  0.00  0.00    -0.218 OA
ENDBRANCH   1  17
TORSDOF 8
ENDMDL
MODEL 59
REMARK VINA RESULT:      -2.0      3.230      4.670
REMARK  8 active torsions:
REMARK  status: ('A' for Active; 'I' for Inactive)
REMARK    1  A    between atoms: C6_1  and  C5_27 
REMARK    2  A    between atoms: C6_4  and  C5_23 
REMARK    3  A    between atoms: C1_7  and  O1_9 
REMARK    4  A    between atoms: O1_9  and  C4_31 
REMARK    5  A    between atoms: S_13  and  O2_22 
REMARK    6  A    between atoms: N_19  and  C2_25 
REMARK    7  A    between atoms: N_19  and  S1_28 
REMARK    8  A    between atoms: C2_20  and  O2_22 
ROOT
ATOM      1  O4  SGN d   1     -38.776  28.477 -31.065  0.00  0.00    -0.326 OA
ENDROOT
BRANCH   1   2
ATOM      2  C1  IDS d   2     -39.224  28.972 -29.796  0.00  0.00     0.268 C 
ATOM      3  C2  IDS d   2     -38.029  29.522 -29.033  0.00  0.00     0.224 C 
ATOM      4  C3  IDS d   2     -38.521  30.426 -27.915  0.00  0.00     0.189 C 
ATOM      5  C4  IDS d   2     -39.189  31.639 -28.540  0.00  0.00     0.077 C 
ATOM      6  O3  IDS d   2     -37.404  30.855 -27.121  0.00  0.00    -0.221 OA
ATOM      7  C5  IDS d   2     -39.630  31.293 -29.954  0.00  0.00     0.207 C 
ATOM      8  O5  IDS d   2     -40.227  29.989 -29.959  0.00  0.00    -0.320 OA
ATOM      9  O2  IDS d   2     -37.248  28.437 -28.511  0.00  0.00    -0.233 OA
ATOM     10  S   IDS d   2     -36.138  27.927 -29.265  0.00  0.00     0.252 S 
ATOM     11  O3S IDS d   2     -35.229  29.086 -29.679  0.00  0.00    -0.572 OA
ATOM     12  O1S IDS d   2     -35.348  26.940 -28.403  0.00  0.00    -0.572 OA
ATOM     13  O2S IDS d   2     -36.654  27.211 -30.514  0.00  0.00    -0.572 OA
ATOM     14  C6  IDS d   2     -40.656  32.324 -30.429  0.00  0.00     0.214 C 
ATOM     15  O61 IDS d   2     -41.852  32.102 -30.145  0.00  0.00    -0.646 OA
ATOM     16  O62 IDS d   2     -40.218  33.323 -31.042  0.00  0.00    -0.646 OA
ENDBRANCH 1 2
BRANCH   1  17
ATOM     17  C4  SGN d   1     -39.887  28.188 -31.927  0.00  0.00     0.180 C 
ATOM     18  C3  SGN d   1     -39.470  28.421 -33.370  0.00  0.00     0.210 C 
ATOM     19  O3  SGN d   1     -39.208  29.818 -33.567  0.00  0.00    -0.218 OA
ATOM     20  C2  SGN d   1     -40.580  27.977 -34.308  0.00  0.00     0.210 C 
ATOM     21  C1  SGN d   1     -40.943  26.533 -34.004  0.00  0.00     0.295 C 
ATOM     22  O1  SGN d   1     -39.793  25.696 -34.205  0.00  0.00    -0.188 OA
ATOM     23  O5  SGN d   1     -41.384  26.424 -32.643  0.00  0.00    -0.325 OA
ATOM     24  C5  SGN d   1     -40.306  26.737 -31.748  0.00  0.00     0.181 C 
ATOM     25  N   SGN d   1     -40.158  28.137 -35.708  0.00  0.00    -0.162 NA
ATOM     26  S1  SGN d   1     -41.191  27.363 -36.706  0.00  0.00     0.227 S 
ATOM     27  O2S SGN d   1     -40.884  25.863 -36.706  0.00  0.00    -0.577 OA
ATOM     28  O3S SGN d   1     -42.625  27.599 -36.229  0.00  0.00    -0.577 OA
ATOM     29  O1S SGN d   1     -41.032  27.912 -38.124  0.00  0.00    -0.577 OA
ATOM     30  C6  SGN d   1     -40.755  26.503 -30.316  0.00  0.00     0.214 C 
ATOM     31  O6  SGN d   1     -41.148  25.137 -30.153  0.00  0.00    -0.218 OA
ENDBRANCH   1  17
TORSDOF 8
ENDMDL
MODEL 60
REMARK VINA RESULT:      -2.0      3.052      4.698
REMARK  8 active torsions:
REMARK  status: ('A' for Active; 'I' for Inactive)
REMARK    1  A    between atoms: C6_1  and  C5_27 
REMARK    2  A    between atoms: C6_4  and  C5_23 
REMARK    3  A    between atoms: C1_7  and  O1_9 
REMARK    4  A    between atoms: O1_9  and  C4_31 
REMARK    5  A    between atoms: S_13  and  O2_22 
REMARK    6  A    between atoms: N_19  and  C2_25 
REMARK    7  A    between atoms: N_19  and  S1_28 
REMARK    8  A    between atoms: C2_20  and  O2_22 
ROOT
ATOM      1  O4  SGN d   1     -37.334  28.323 -28.254  0.00  0.00    -0.326 OA
ENDROOT
BRANCH   1   2
ATOM      2  C1  IDS d   2     -37.018  29.643 -27.792  0.00  0.00     0.268 C 
ATOM      3  C2  IDS d   2     -36.408  29.547 -26.402  0.00  0.00     0.224 C 
ATOM      4  C3  IDS d   2     -35.679  30.841 -26.084  0.00  0.00     0.189 C 
ATOM      5  C4  IDS d   2     -34.498  30.970 -27.031  0.00  0.00     0.077 C 
ATOM      6  O3  IDS d   2     -35.201  30.799 -24.730  0.00  0.00    -0.221 OA
ATOM      7  C5  IDS d   2     -34.756  30.125 -28.269  0.00  0.00     0.207 C 
ATOM      8  O5  IDS d   2     -36.114  30.306 -28.692  0.00  0.00    -0.320 OA
ATOM      9  O2  IDS d   2     -37.440  29.287 -25.439  0.00  0.00    -0.233 OA
ATOM     10  S   IDS d   2     -37.743  27.935 -25.062  0.00  0.00     0.252 S 
ATOM     11  O3S IDS d   2     -36.451  27.217 -24.666  0.00  0.00    -0.572 OA
ATOM     12  O1S IDS d   2     -38.708  27.942 -23.875  0.00  0.00    -0.572 OA
ATOM     13  O2S IDS d   2     -38.391  27.208 -26.241  0.00  0.00    -0.572 OA
ATOM     14  C6  IDS d   2     -33.811  30.568 -29.388  0.00  0.00     0.214 C 
ATOM     15  O61 IDS d   2     -34.197  31.508 -30.113  0.00  0.00    -0.646 OA
ATOM     16  O62 IDS d   2     -32.714  29.973 -29.475  0.00  0.00    -0.646 OA
ENDBRANCH 1 2
BRANCH   1  17
ATOM     17  C4  SGN d   1     -37.995  28.366 -29.527  0.00  0.00     0.180 C 
ATOM     18  C3  SGN d   1     -37.503  27.209 -30.380  0.00  0.00     0.210 C 
ATOM     19  O3  SGN d   1     -36.114  27.401 -30.684  0.00  0.00    -0.218 OA
ATOM     20  C2  SGN d   1     -38.299  27.145 -31.674  0.00  0.00     0.210 C 
ATOM     21  C1  SGN d   1     -39.782  27.073 -31.345  0.00  0.00     0.295 C 
ATOM     22  O1  SGN d   1     -40.045  25.893 -30.571  0.00  0.00    -0.188 OA
ATOM     23  O5  SGN d   1     -40.164  28.235 -30.596  0.00  0.00    -0.325 OA
ATOM     24  C5  SGN d   1     -39.497  28.244 -29.324  0.00  0.00     0.181 C 
ATOM     25  N   SGN d   1     -37.875  25.988 -32.477  0.00  0.00    -0.162 NA
ATOM     26  S1  SGN d   1     -38.933  25.716 -33.688  0.00  0.00     0.227 S 
ATOM     27  O2S SGN d   1     -40.164  24.985 -33.146  0.00  0.00    -0.577 OA
ATOM     28  O3S SGN d   1     -39.352  27.054 -34.300  0.00  0.00    -0.577 OA
ATOM     29  O1S SGN d   1     -38.265  24.856 -34.762  0.00  0.00    -0.577 OA
ATOM     30  C6  SGN d   1     -40.003  29.415 -28.498  0.00  0.00     0.214 C 
ATOM     31  O6  SGN d   1     -41.416  29.296 -28.311  0.00  0.00    -0.218 OA
ENDBRANCH   1  17
TORSDOF 8
ENDMDL
MODEL 61
REMARK VINA RESULT:      -1.9      3.131      7.155
REMARK  8 active torsions:
REMARK  status: ('A' for Active; 'I' for Inactive)
REMARK    1  A    between atoms: C6_1  and  C5_27 
REMARK    2  A    between atoms: C6_4  and  C5_23 
REMARK    3  A    between atoms: C1_7  and  O1_9 
REMARK    4  A    between atoms: O1_9  and  C4_31 
REMARK    5  A    between atoms: S_13  and  O2_22 
REMARK    6  A    between atoms: N_19  and  C2_25 
REMARK    7  A    between atoms: N_19  and  S1_28 
REMARK    8  A    between atoms: C2_20  and  O2_22 
ROOT
ATOM      1  O4  SGN d   1     -39.304  27.721 -31.415  0.00  0.00    -0.326 OA
ENDROOT
BRANCH   1   2
ATOM      2  C1  IDS d   2     -39.684  28.259 -32.689  0.00  0.00     0.268 C 
ATOM      3  C2  IDS d   2     -40.886  27.487 -33.211  0.00  0.00     0.224 C 
ATOM      4  C3  IDS d   2     -41.560  28.294 -34.308  0.00  0.00     0.189 C 
ATOM      5  C4  IDS d   2     -42.134  29.557 -33.689  0.00  0.00     0.077 C 
ATOM      6  O3  IDS d   2     -42.625  27.520 -34.883  0.00  0.00    -0.221 OA
ATOM      7  C5  IDS d   2     -41.396  29.858 -32.394  0.00  0.00     0.207 C 
ATOM      8  O5  IDS d   2     -39.989  29.660 -32.593  0.00  0.00    -0.320 OA
ATOM      9  O2  IDS d   2     -40.462  26.206 -33.701  0.00  0.00    -0.233 OA
ATOM     10  S   IDS d   2     -40.496  25.063 -32.834  0.00  0.00     0.252 S 
ATOM     11  O3S IDS d   2     -41.878  24.955 -32.188  0.00  0.00    -0.572 OA
ATOM     12  O1S IDS d   2     -40.213  23.799 -33.648  0.00  0.00    -0.572 OA
ATOM     13  O2S IDS d   2     -39.433  25.214 -31.745  0.00  0.00    -0.572 OA
ATOM     14  C6  IDS d   2     -41.652  31.312 -31.992  0.00  0.00     0.214 C 
ATOM     15  O61 IDS d   2     -40.887  32.173 -32.473  0.00  0.00    -0.646 OA
ATOM     16  O62 IDS d   2     -42.625  31.530 -31.236  0.00  0.00    -0.646 OA
ENDBRANCH 1 2
BRANCH   1  17
ATOM     17  C4  SGN d   1     -38.123  28.364 -30.914  0.00  0.00     0.180 C 
ATOM     18  C3  SGN d   1     -38.145  28.331 -29.395  0.00  0.00     0.210 C 
ATOM     19  O3  SGN d   1     -39.231  29.140 -28.919  0.00  0.00    -0.218 OA
ATOM     20  C2  SGN d   1     -36.834  28.870 -28.846  0.00  0.00     0.210 C 
ATOM     21  C1  SGN d   1     -35.680  28.092 -29.456  0.00  0.00     0.295 C 
ATOM     22  O1  SGN d   1     -35.800  26.703 -29.110  0.00  0.00    -0.188 OA
ATOM     23  O5  SGN d   1     -35.705  28.235 -30.884  0.00  0.00    -0.325 OA
ATOM     24  C5  SGN d   1     -36.891  27.630 -31.420  0.00  0.00     0.181 C 
ATOM     25  N   SGN d   1     -36.821  28.779 -27.378  0.00  0.00    -0.162 NA
ATOM     26  S1  SGN d   1     -35.315  29.035 -26.805  0.00  0.00     0.227 S 
ATOM     27  O2S SGN d   1     -34.477  27.764 -26.966  0.00  0.00    -0.577 OA
ATOM     28  O3S SGN d   1     -34.670  30.185 -27.581  0.00  0.00    -0.577 OA
ATOM     29  O1S SGN d   1     -35.393  29.405 -25.323  0.00  0.00    -0.577 OA
ATOM     30  C6  SGN d   1     -36.844  27.686 -32.937  0.00  0.00     0.214 C 
ATOM     31  O6  SGN d   1     -35.684  26.994 -33.408  0.00  0.00    -0.218 OA
ENDBRANCH   1  17
TORSDOF 8
ENDMDL
MODEL 62
REMARK VINA RESULT:      -1.9      4.425      6.091
REMARK  8 active torsions:
REMARK  status: ('A' for Active; 'I' for Inactive)
REMARK    1  A    between atoms: C6_1  and  C5_27 
REMARK    2  A    between atoms: C6_4  and  C5_23 
REMARK    3  A    between atoms: C1_7  and  O1_9 
REMARK    4  A    between atoms: O1_9  and  C4_31 
REMARK    5  A    between atoms: S_13  and  O2_22 
REMARK    6  A    between atoms: N_19  and  C2_25 
REMARK    7  A    between atoms: N_19  and  S1_28 
REMARK    8  A    between atoms: C2_20  and  O2_22 
ROOT
ATOM      1  O4  SGN d   1     -36.092  30.419 -27.485  0.00  0.00    -0.326 OA
ENDROOT
BRANCH   1   2
ATOM      2  C1  IDS d   2     -35.636  31.387 -28.440  0.00  0.00     0.268 C 
ATOM      3  C2  IDS d   2     -34.117  31.433 -28.409  0.00  0.00     0.224 C 
ATOM      4  C3  IDS d   2     -33.610  32.099 -29.677  0.00  0.00     0.189 C 
ATOM      5  C4  IDS d   2     -33.959  31.208 -30.857  0.00  0.00     0.077 C 
ATOM      6  O3  IDS d   2     -32.184  32.249 -29.599  0.00  0.00    -0.221 OA
ATOM      7  C5  IDS d   2     -35.120  30.304 -30.475  0.00  0.00     0.207 C 
ATOM      8  O5  IDS d   2     -36.102  31.071 -29.763  0.00  0.00    -0.320 OA
ATOM      9  O2  IDS d   2     -33.679  32.146 -27.243  0.00  0.00    -0.233 OA
ATOM     10  S   IDS d   2     -33.373  31.428 -26.038  0.00  0.00     0.252 S 
ATOM     11  O3S IDS d   2     -32.405  30.287 -26.358  0.00  0.00    -0.572 OA
ATOM     12  O1S IDS d   2     -32.725  32.379 -25.030  0.00  0.00    -0.572 OA
ATOM     13  O2S IDS d   2     -34.660  30.855 -25.443  0.00  0.00    -0.572 OA
ATOM     14  C6  IDS d   2     -35.749  29.726 -31.744  0.00  0.00     0.214 C 
ATOM     15  O61 IDS d   2     -36.637  30.410 -32.296  0.00  0.00    -0.646 OA
ATOM     16  O62 IDS d   2     -35.309  28.627 -32.147  0.00  0.00    -0.646 OA
ENDBRANCH 1 2
BRANCH   1  17
ATOM     17  C4  SGN d   1     -37.497  30.166 -27.636  0.00  0.00     0.180 C 
ATOM     18  C3  SGN d   1     -37.746  28.671 -27.527  0.00  0.00     0.210 C 
ATOM     19  O3  SGN d   1     -37.134  28.006 -28.642  0.00  0.00    -0.218 OA
ATOM     20  C2  SGN d   1     -39.240  28.394 -27.531  0.00  0.00     0.210 C 
ATOM     21  C1  SGN d   1     -39.903  29.204 -26.429  0.00  0.00     0.295 C 
ATOM     22  O1  SGN d   1     -39.356  28.821 -25.157  0.00  0.00    -0.188 OA
ATOM     23  O5  SGN d   1     -39.666  30.602 -26.653  0.00  0.00    -0.325 OA
ATOM     24  C5  SGN d   1     -38.264  30.890 -26.540  0.00  0.00     0.181 C 
ATOM     25  N   SGN d   1     -39.493  26.955 -27.360  0.00  0.00    -0.162 NA
ATOM     26  S1  SGN d   1     -41.067  26.688 -27.030  0.00  0.00     0.227 S 
ATOM     27  O2S SGN d   1     -41.346  26.990 -25.555  0.00  0.00    -0.577 OA
ATOM     28  O3S SGN d   1     -41.928  27.591 -27.916  0.00  0.00    -0.577 OA
ATOM     29  O1S SGN d   1     -41.405  25.225 -27.319  0.00  0.00    -0.577 OA
ATOM     30  C6  SGN d   1     -38.046  32.388 -26.661  0.00  0.00     0.214 C 
ATOM     31  O6  SGN d   1     -38.770  33.064 -25.629  0.00  0.00    -0.218 OA
ENDBRANCH   1  17
TORSDOF 8
ENDMDL
MODEL 63
REMARK VINA RESULT:      -1.8      2.724      4.049
REMARK  8 active torsions:
REMARK  status: ('A' for Active; 'I' for Inactive)
REMARK    1  A    between atoms: C6_1  and  C5_27 
REMARK    2  A    between atoms: C6_4  and  C5_23 
REMARK    3  A    between atoms: C1_7  and  O1_9 
REMARK    4  A    between atoms: O1_9  and  C4_31 
REMARK    5  A    between atoms: S_13  and  O2_22 
REMARK    6  A    between atoms: N_19  and  C2_25 
REMARK    7  A    between atoms: N_19  and  S1_28 
REMARK    8  A    between atoms: C2_20  and  O2_22 
ROOT
ATOM      1  O4  SGN d   1     -38.315  27.902 -28.907  0.00  0.00    -0.326 OA
ENDROOT
BRANCH   1   2
ATOM      2  C1  IDS d   2     -37.847  29.181 -28.456  0.00  0.00     0.268 C 
ATOM      3  C2  IDS d   2     -37.334  29.043 -27.031  0.00  0.00     0.224 C 
ATOM      4  C3  IDS d   2     -36.454  30.235 -26.698  0.00  0.00     0.189 C 
ATOM      5  C4  IDS d   2     -35.215  30.176 -27.576  0.00  0.00     0.077 C 
ATOM      6  O3  IDS d   2     -36.063  30.168 -25.318  0.00  0.00    -0.221 OA
ATOM      7  C5  IDS d   2     -35.517  29.337 -28.808  0.00  0.00     0.207 C 
ATOM      8  O5  IDS d   2     -36.812  29.689 -29.315  0.00  0.00    -0.320 OA
ATOM      9  O2  IDS d   2     -38.444  28.953 -26.125  0.00  0.00    -0.233 OA
ATOM     10  S   IDS d   2     -38.950  27.667 -25.738  0.00  0.00     0.252 S 
ATOM     11  O3S IDS d   2     -37.793  26.792 -25.251  0.00  0.00    -0.572 OA
ATOM     12  O1S IDS d   2     -39.970  27.839 -24.611  0.00  0.00    -0.572 OA
ATOM     13  O2S IDS d   2     -39.625  27.000 -26.938  0.00  0.00    -0.572 OA
ATOM     14  C6  IDS d   2     -34.460  29.615 -29.879  0.00  0.00     0.214 C 
ATOM     15  O61 IDS d   2     -34.673  30.578 -30.645  0.00  0.00    -0.646 OA
ATOM     16  O62 IDS d   2     -33.451  28.875 -29.888  0.00  0.00    -0.646 OA
ENDBRANCH 1 2
BRANCH   1  17
ATOM     17  C4  SGN d   1     -38.921  28.004 -30.205  0.00  0.00     0.180 C 
ATOM     18  C3  SGN d   1     -38.607  26.746 -30.998  0.00  0.00     0.210 C 
ATOM     19  O3  SGN d   1     -37.196  26.689 -31.257  0.00  0.00    -0.218 OA
ATOM     20  C2  SGN d   1     -39.363  26.763 -32.316  0.00  0.00     0.210 C 
ATOM     21  C1  SGN d   1     -40.845  26.955 -32.040  0.00  0.00     0.295 C 
ATOM     22  O1  SGN d   1     -41.328  25.869 -31.234  0.00  0.00    -0.188 OA
ATOM     23  O5  SGN d   1     -41.048  28.196 -31.347  0.00  0.00    -0.325 OA
ATOM     24  C5  SGN d   1     -40.427  28.145 -30.053  0.00  0.00     0.181 C 
ATOM     25  N   SGN d   1     -39.117  25.519 -33.062  0.00  0.00    -0.162 NA
ATOM     26  S1  SGN d   1     -40.169  25.380 -34.300  0.00  0.00     0.227 S 
ATOM     27  O2S SGN d   1     -41.522  24.888 -33.778  0.00  0.00    -0.577 OA
ATOM     28  O3S SGN d   1     -40.337  26.742 -34.975  0.00  0.00    -0.577 OA
ATOM     29  O1S SGN d   1     -39.625  24.376 -35.317  0.00  0.00    -0.577 OA
ATOM     30  C6  SGN d   1     -40.751  29.417 -29.288  0.00  0.00     0.214 C 
ATOM     31  O6  SGN d   1     -42.169  29.545 -29.148  0.00  0.00    -0.218 OA
ENDBRANCH   1  17
TORSDOF 8
ENDMDL
MODEL 64
REMARK VINA RESULT:      -1.8      4.680      7.144
REMARK  8 active torsions:
REMARK  status: ('A' for Active; 'I' for Inactive)
REMARK    1  A    between atoms: C6_1  and  C5_27 
REMARK    2  A    between atoms: C6_4  and  C5_23 
REMARK    3  A    between atoms: C1_7  and  O1_9 
REMARK    4  A    between atoms: O1_9  and  C4_31 
REMARK    5  A    between atoms: S_13  and  O2_22 
REMARK    6  A    between atoms: N_19  and  C2_25 
REMARK    7  A    between atoms: N_19  and  S1_28 
REMARK    8  A    between atoms: C2_20  and  O2_22 
ROOT
ATOM      1  O4  SGN d   1     -36.354  29.702 -29.582  0.00  0.00    -0.326 OA
ENDROOT
BRANCH   1   2
ATOM      2  C1  IDS d   2     -35.956  28.548 -28.830  0.00  0.00     0.268 C 
ATOM      3  C2  IDS d   2     -34.869  28.952 -27.846  0.00  0.00     0.224 C 
ATOM      4  C3  IDS d   2     -34.748  27.888 -26.768  0.00  0.00     0.189 C 
ATOM      5  C4  IDS d   2     -36.036  27.878 -25.960  0.00  0.00     0.077 C 
ATOM      6  O3  IDS d   2     -33.647  28.207 -25.904  0.00  0.00    -0.221 OA
ATOM      7  C5  IDS d   2     -37.154  28.480 -26.796  0.00  0.00     0.207 C 
ATOM      8  O5  IDS d   2     -37.074  27.970 -28.134  0.00  0.00    -0.320 OA
ATOM      9  O2  IDS d   2     -33.625  29.121 -28.543  0.00  0.00    -0.233 OA
ATOM     10  S   IDS d   2     -33.244  30.419 -29.021  0.00  0.00     0.252 S 
ATOM     11  O3S IDS d   2     -33.357  31.434 -27.880  0.00  0.00    -0.572 OA
ATOM     12  O1S IDS d   2     -31.799  30.373 -29.521  0.00  0.00    -0.572 OA
ATOM     13  O2S IDS d   2     -34.167  30.835 -30.167  0.00  0.00    -0.572 OA
ATOM     14  C6  IDS d   2     -38.503  28.095 -26.186  0.00  0.00     0.214 C 
ATOM     15  O61 IDS d   2     -38.997  27.007 -26.550  0.00  0.00    -0.646 OA
ATOM     16  O62 IDS d   2     -38.996  28.885 -25.350  0.00  0.00    -0.646 OA
ENDBRANCH 1 2
BRANCH   1  17
ATOM     17  C4  SGN d   1     -37.604  29.476 -30.251  0.00  0.00     0.180 C 
ATOM     18  C3  SGN d   1     -38.409  30.766 -30.245  0.00  0.00     0.210 C 
ATOM     19  O3  SGN d   1     -38.771  31.093 -28.895  0.00  0.00    -0.218 OA
ATOM     20  C2  SGN d   1     -39.669  30.593 -31.078  0.00  0.00     0.210 C 
ATOM     21  C1  SGN d   1     -39.286  30.119 -32.470  0.00  0.00     0.295 C 
ATOM     22  O1  SGN d   1     -38.439  31.096 -33.094  0.00  0.00    -0.188 OA
ATOM     23  O5  SGN d   1     -38.589  28.867 -32.377  0.00  0.00    -0.325 OA
ATOM     24  C5  SGN d   1     -37.344  29.046 -31.685  0.00  0.00     0.181 C 
ATOM     25  N   SGN d   1     -40.421  31.855 -31.133  0.00  0.00    -0.162 NA
ATOM     26  S1  SGN d   1     -41.578  31.780 -32.280  0.00  0.00     0.227 S 
ATOM     27  O2S SGN d   1     -40.955  32.003 -33.660  0.00  0.00    -0.577 OA
ATOM     28  O3S SGN d   1     -42.249  30.406 -32.229  0.00  0.00    -0.577 OA
ATOM     29  O1S SGN d   1     -42.625  32.863 -32.016  0.00  0.00    -0.577 OA
ATOM     30  C6  SGN d   1     -36.567  27.741 -31.700  0.00  0.00     0.214 C 
ATOM     31  O6  SGN d   1     -36.325  27.342 -33.052  0.00  0.00    -0.218 OA
ENDBRANCH   1  17
TORSDOF 8
ENDMDL
MODEL 65
REMARK VINA RESULT:      -1.8      2.850      3.715
REMARK  8 active torsions:
REMARK  status: ('A' for Active; 'I' for Inactive)
REMARK    1  A    between atoms: C6_1  and  C5_27 
REMARK    2  A    between atoms: C6_4  and  C5_23 
REMARK    3  A    between atoms: C1_7  and  O1_9 
REMARK    4  A    between atoms: O1_9  and  C4_31 
REMARK    5  A    between atoms: S_13  and  O2_22 
REMARK    6  A    between atoms: N_19  and  C2_25 
REMARK    7  A    between atoms: N_19  and  S1_28 
REMARK    8  A    between atoms: C2_20  and  O2_22 
ROOT
ATOM      1  O4  SGN d   1     -39.176  28.151 -30.541  0.00  0.00    -0.326 OA
ENDROOT
BRANCH   1   2
ATOM      2  C1  IDS d   2     -39.724  29.024 -29.544  0.00  0.00     0.268 C 
ATOM      3  C2  IDS d   2     -38.584  29.730 -28.826  0.00  0.00     0.224 C 
ATOM      4  C3  IDS d   2     -39.127  30.947 -28.099  0.00  0.00     0.189 C 
ATOM      5  C4  IDS d   2     -39.623  31.942 -29.136  0.00  0.00     0.077 C 
ATOM      6  O3  IDS d   2     -38.076  31.550 -27.327  0.00  0.00    -0.221 OA
ATOM      7  C5  IDS d   2     -39.927  31.204 -30.430  0.00  0.00     0.207 C 
ATOM      8  O5  IDS d   2     -40.619  29.984 -30.129  0.00  0.00    -0.320 OA
ATOM      9  O2  IDS d   2     -37.954  28.821 -27.910  0.00  0.00    -0.233 OA
ATOM     10  S   IDS d   2     -36.810  28.062 -28.328  0.00  0.00     0.252 S 
ATOM     11  O3S IDS d   2     -35.772  29.004 -28.942  0.00  0.00    -0.572 OA
ATOM     12  O1S IDS d   2     -36.202  27.351 -27.118  0.00  0.00    -0.572 OA
ATOM     13  O2S IDS d   2     -37.235  27.025 -29.368  0.00  0.00    -0.572 OA
ATOM     14  C6  IDS d   2     -40.809  32.084 -31.318  0.00  0.00     0.214 C 
ATOM     15  O61 IDS d   2     -42.042  32.007 -31.141  0.00  0.00    -0.646 OA
ATOM     16  O62 IDS d   2     -40.227  32.833 -32.134  0.00  0.00    -0.646 OA
ENDBRANCH 1 2
BRANCH   1  17
ATOM     17  C4  SGN d   1     -40.217  27.534 -31.314  0.00  0.00     0.180 C 
ATOM     18  C3  SGN d   1     -39.701  27.272 -32.720  0.00  0.00     0.210 C 
ATOM     19  O3  SGN d   1     -39.453  28.525 -33.374  0.00  0.00    -0.218 OA
ATOM     20  C2  SGN d   1     -40.731  26.483 -33.510  0.00  0.00     0.210 C 
ATOM     21  C1  SGN d   1     -41.087  25.218 -32.746  0.00  0.00     0.295 C 
ATOM     22  O1  SGN d   1     -39.909  24.414 -32.573  0.00  0.00    -0.188 OA
ATOM     23  O5  SGN d   1     -41.623  25.568 -31.461  0.00  0.00    -0.325 OA
ATOM     24  C5  SGN d   1     -40.618  26.217 -30.667  0.00  0.00     0.181 C 
ATOM     25  N   SGN d   1     -40.214  26.167 -34.850  0.00  0.00    -0.162 NA
ATOM     26  S1  SGN d   1     -41.156  25.052 -35.577  0.00  0.00     0.227 S 
ATOM     27  O2S SGN d   1     -40.820  23.659 -35.037  0.00  0.00    -0.577 OA
ATOM     28  O3S SGN d   1     -42.625  25.376 -35.300  0.00  0.00    -0.577 OA
ATOM     29  O1S SGN d   1     -40.907  25.083 -37.086  0.00  0.00    -0.577 OA
ATOM     30  C6  SGN d   1     -41.165  26.473 -29.273  0.00  0.00     0.214 C 
ATOM     31  O6  SGN d   1     -41.541  25.232 -28.670  0.00  0.00    -0.218 OA
ENDBRANCH   1  17
TORSDOF 8
ENDMDL
MODEL 66
REMARK VINA RESULT:      -1.8      3.342      6.603
REMARK  8 active torsions:
REMARK  status: ('A' for Active; 'I' for Inactive)
REMARK    1  A    between atoms: C6_1  and  C5_27 
REMARK    2  A    between atoms: C6_4  and  C5_23 
REMARK    3  A    between atoms: C1_7  and  O1_9 
REMARK    4  A    between atoms: O1_9  and  C4_31 
REMARK    5  A    between atoms: S_13  and  O2_22 
REMARK    6  A    between atoms: N_19  and  C2_25 
REMARK    7  A    between atoms: N_19  and  S1_28 
REMARK    8  A    between atoms: C2_20  and  O2_22 
ROOT
ATOM      1  O4  SGN d   1     -38.689  28.230 -30.708  0.00  0.00    -0.326 OA
ENDROOT
BRANCH   1   2
ATOM      2  C1  IDS d   2     -39.105  27.870 -32.033  0.00  0.00     0.268 C 
ATOM      3  C2  IDS d   2     -37.876  27.759 -32.922  0.00  0.00     0.224 C 
ATOM      4  C3  IDS d   2     -38.232  26.973 -34.172  0.00  0.00     0.189 C 
ATOM      5  C4  IDS d   2     -38.559  25.547 -33.763  0.00  0.00     0.077 C 
ATOM      6  O3  IDS d   2     -37.108  26.965 -35.066  0.00  0.00    -0.221 OA
ATOM      7  C5  IDS d   2     -38.961  25.528 -32.296  0.00  0.00     0.207 C 
ATOM      8  O5  IDS d   2     -39.836  26.633 -32.030  0.00  0.00    -0.320 OA
ATOM      9  O2  IDS d   2     -37.402  29.072 -33.257  0.00  0.00    -0.233 OA
ATOM     10  S   IDS d   2     -36.385  29.692 -32.457  0.00  0.00     0.252 S 
ATOM     11  O3S IDS d   2     -35.208  28.727 -32.294  0.00  0.00    -0.572 OA
ATOM     12  O1S IDS d   2     -35.905  30.971 -33.145  0.00  0.00    -0.572 OA
ATOM     13  O2S IDS d   2     -36.955  30.038 -31.080  0.00  0.00    -0.572 OA
ATOM     14  C6  IDS d   2     -39.688  24.217 -31.989  0.00  0.00     0.214 C 
ATOM     15  O61 IDS d   2     -40.921  24.196 -32.189  0.00  0.00    -0.646 OA
ATOM     16  O62 IDS d   2     -38.991  23.260 -31.587  0.00  0.00    -0.646 OA
ENDBRANCH 1 2
BRANCH   1  17
ATOM     17  C4  SGN d   1     -39.761  28.846 -29.980  0.00  0.00     0.180 C 
ATOM     18  C3  SGN d   1     -39.540  28.628 -28.492  0.00  0.00     0.210 C 
ATOM     19  O3  SGN d   1     -39.656  27.228 -28.196  0.00  0.00    -0.218 OA
ATOM     20  C2  SGN d   1     -40.580  29.400 -27.696  0.00  0.00     0.210 C 
ATOM     21  C1  SGN d   1     -40.541  30.862 -28.110  0.00  0.00     0.295 C 
ATOM     22  O1  SGN d   1     -39.240  31.405 -27.837  0.00  0.00    -0.188 OA
ATOM     23  O5  SGN d   1     -40.823  30.972 -29.513  0.00  0.00    -0.325 OA
ATOM     24  C5  SGN d   1     -39.786  30.337 -30.276  0.00  0.00     0.181 C 
ATOM     25  N   SGN d   1     -40.333  29.249 -26.254  0.00  0.00    -0.162 NA
ATOM     26  S1  SGN d   1     -41.220  30.325 -25.408  0.00  0.00     0.227 S 
ATOM     27  O2S SGN d   1     -40.548  31.700 -25.455  0.00  0.00    -0.577 OA
ATOM     28  O3S SGN d   1     -42.621  30.412 -26.015  0.00  0.00    -0.577 OA
ATOM     29  O1S SGN d   1     -41.326  29.864 -23.954  0.00  0.00    -0.577 OA
ATOM     30  C6  SGN d   1     -40.038  30.565 -31.757  0.00  0.00     0.214 C 
ATOM     31  O6  SGN d   1     -40.060  31.969 -32.030  0.00  0.00    -0.218 OA
ENDBRANCH   1  17
TORSDOF 8
ENDMDL
MODEL 67
REMARK VINA RESULT:      -1.7      2.328      3.229
REMARK  8 active torsions:
REMARK  status: ('A' for Active; 'I' for Inactive)
REMARK    1  A    between atoms: C6_1  and  C5_27 
REMARK    2  A    between atoms: C6_4  and  C5_23 
REMARK    3  A    between atoms: C1_7  and  O1_9 
REMARK    4  A    between atoms: O1_9  and  C4_31 
REMARK    5  A    between atoms: S_13  and  O2_22 
REMARK    6  A    between atoms: N_19  and  C2_25 
REMARK    7  A    between atoms: N_19  and  S1_28 
REMARK    8  A    between atoms: C2_20  and  O2_22 
ROOT
ATOM      1  O4  SGN d   1     -38.828  26.898 -30.630  0.00  0.00    -0.326 OA
ENDROOT
BRANCH   1   2
ATOM      2  C1  IDS d   2     -38.698  28.319 -30.487  0.00  0.00     0.268 C 
ATOM      3  C2  IDS d   2     -38.788  28.676 -29.012  0.00  0.00     0.224 C 
ATOM      4  C3  IDS d   2     -38.228  30.071 -28.799  0.00  0.00     0.189 C 
ATOM      5  C4  IDS d   2     -36.741  30.043 -29.114  0.00  0.00     0.077 C 
ATOM      6  O3  IDS d   2     -38.416  30.458 -27.429  0.00  0.00    -0.221 OA
ATOM      7  C5  IDS d   2     -36.447  28.863 -30.027  0.00  0.00     0.207 C 
ATOM      8  O5  IDS d   2     -37.457  28.786 -31.042  0.00  0.00    -0.320 OA
ATOM      9  O2  IDS d   2     -40.154  28.598 -28.578  0.00  0.00    -0.233 OA
ATOM     10  S   IDS d   2     -40.653  27.385 -27.997  0.00  0.00     0.252 S 
ATOM     11  O3S IDS d   2     -39.713  26.934 -26.876  0.00  0.00    -0.572 OA
ATOM     12  O1S IDS d   2     -42.050  27.631 -27.424  0.00  0.00    -0.572 OA
ATOM     13  O2S IDS d   2     -40.728  26.296 -29.069  0.00  0.00    -0.572 OA
ATOM     14  C6  IDS d   2     -35.080  29.063 -30.685  0.00  0.00     0.214 C 
ATOM     15  O61 IDS d   2     -35.055  29.720 -31.746  0.00  0.00    -0.646 OA
ATOM     16  O62 IDS d   2     -34.089  28.576 -30.096  0.00  0.00    -0.646 OA
ENDBRANCH 1 2
BRANCH   1  17
ATOM     17  C4  SGN d   1     -39.243  26.548 -31.959  0.00  0.00     0.180 C 
ATOM     18  C3  SGN d   1     -39.416  25.041 -32.045  0.00  0.00     0.210 C 
ATOM     19  O3  SGN d   1     -38.138  24.407 -31.883  0.00  0.00    -0.218 OA
ATOM     20  C2  SGN d   1     -40.000  24.663 -33.396  0.00  0.00     0.210 C 
ATOM     21  C1  SGN d   1     -41.288  25.438 -33.618  0.00  0.00     0.295 C 
ATOM     22  O1  SGN d   1     -42.232  25.107 -32.588  0.00  0.00    -0.188 OA
ATOM     23  O5  SGN d   1     -41.013  26.846 -33.584  0.00  0.00    -0.325 OA
ATOM     24  C5  SGN d   1     -40.565  27.230 -32.275  0.00  0.00     0.181 C 
ATOM     25  N   SGN d   1     -40.233  23.212 -33.463  0.00  0.00    -0.162 NA
ATOM     26  S1  SGN d   1     -41.156  22.843 -34.756  0.00  0.00     0.227 S 
ATOM     27  O2S SGN d   1     -42.625  23.140 -34.445  0.00  0.00    -0.577 OA
ATOM     28  O3S SGN d   1     -40.700  23.675 -35.955  0.00  0.00    -0.577 OA
ATOM     29  O1S SGN d   1     -40.999  21.357 -35.083  0.00  0.00    -0.577 OA
ATOM     30  C6  SGN d   1     -40.393  28.738 -32.223  0.00  0.00     0.214 C 
ATOM     31  O6  SGN d   1     -41.639  29.374 -32.521  0.00  0.00    -0.218 OA
ENDBRANCH   1  17
TORSDOF 8
ENDMDL
MODEL 68
REMARK VINA RESULT:      -1.7      3.719      7.460
REMARK  8 active torsions:
REMARK  status: ('A' for Active; 'I' for Inactive)
REMARK    1  A    between atoms: C6_1  and  C5_27 
REMARK    2  A    between atoms: C6_4  and  C5_23 
REMARK    3  A    between atoms: C1_7  and  O1_9 
REMARK    4  A    between atoms: O1_9  and  C4_31 
REMARK    5  A    between atoms: S_13  and  O2_22 
REMARK    6  A    between atoms: N_19  and  C2_25 
REMARK    7  A    between atoms: N_19  and  S1_28 
REMARK    8  A    between atoms: C2_20  and  O2_22 
ROOT
ATOM      1  O4  SGN d   1     -38.916  29.290 -30.374  0.00  0.00    -0.326 OA
ENDROOT
BRANCH   1   2
ATOM      2  C1  IDS d   2     -39.321  29.191 -31.746  0.00  0.00     0.268 C 
ATOM      3  C2  IDS d   2     -40.736  28.637 -31.803  0.00  0.00     0.224 C 
ATOM      4  C3  IDS d   2     -41.334  28.931 -33.169  0.00  0.00     0.189 C 
ATOM      5  C4  IDS d   2     -41.488  30.436 -33.310  0.00  0.00     0.077 C 
ATOM      6  O3  IDS d   2     -42.625  28.310 -33.268  0.00  0.00    -0.221 OA
ATOM      7  C5  IDS d   2     -40.528  31.128 -32.353  0.00  0.00     0.207 C 
ATOM      8  O5  IDS d   2     -39.255  30.469 -32.401  0.00  0.00    -0.320 OA
ATOM      9  O2  IDS d   2     -40.713  27.225 -31.545  0.00  0.00    -0.233 OA
ATOM     10  S   IDS d   2     -40.909  26.740 -30.209  0.00  0.00     0.252 S 
ATOM     11  O3S IDS d   2     -42.174  27.368 -29.620  0.00  0.00    -0.572 OA
ATOM     12  O1S IDS d   2     -41.061  25.218 -30.238  0.00  0.00    -0.572 OA
ATOM     13  O2S IDS d   2     -39.703  27.114 -29.345  0.00  0.00    -0.572 OA
ATOM     14  C6  IDS d   2     -40.361  32.589 -32.776  0.00  0.00     0.214 C 
ATOM     15  O61 IDS d   2     -39.479  32.833 -33.625  0.00  0.00    -0.646 OA
ATOM     16  O62 IDS d   2     -41.137  33.423 -32.258  0.00  0.00    -0.646 OA
ENDBRANCH 1 2
BRANCH   1  17
ATOM     17  C4  SGN d   1     -37.488  29.395 -30.264  0.00  0.00     0.180 C 
ATOM     18  C3  SGN d   1     -37.144  30.165 -28.999  0.00  0.00     0.210 C 
ATOM     19  O3  SGN d   1     -37.601  31.519 -29.131  0.00  0.00    -0.218 OA
ATOM     20  C2  SGN d   1     -35.640  30.157 -28.782  0.00  0.00     0.210 C 
ATOM     21  C1  SGN d   1     -35.143  28.721 -28.775  0.00  0.00     0.295 C 
ATOM     22  O1  SGN d   1     -35.777  27.999 -27.708  0.00  0.00    -0.188 OA
ATOM     23  O5  SGN d   1     -35.457  28.098 -30.030  0.00  0.00    -0.325 OA
ATOM     24  C5  SGN d   1     -36.881  28.003 -30.192  0.00  0.00     0.181 C 
ATOM     25  N   SGN d   1     -35.302  30.843 -27.526  0.00  0.00    -0.162 NA
ATOM     26  S1  SGN d   1     -33.750  30.553 -27.118  0.00  0.00     0.227 S 
ATOM     27  O2S SGN d   1     -33.633  29.167 -26.480  0.00  0.00    -0.577 OA
ATOM     28  O3S SGN d   1     -32.878  30.623 -28.372  0.00  0.00    -0.577 OA
ATOM     29  O1S SGN d   1     -33.283  31.612 -26.117  0.00  0.00    -0.577 OA
ATOM     30  C6  SGN d   1     -37.193  27.237 -31.465  0.00  0.00     0.214 C 
ATOM     31  O6  SGN d   1     -36.619  25.929 -31.392  0.00  0.00    -0.218 OA
ENDBRANCH   1  17
TORSDOF 8
ENDMDL
MODEL 69
REMARK VINA RESULT:      -1.6      4.597      8.344
REMARK  8 active torsions:
REMARK  status: ('A' for Active; 'I' for Inactive)
REMARK    1  A    between atoms: C6_1  and  C5_27 
REMARK    2  A    between atoms: C6_4  and  C5_23 
REMARK    3  A    between atoms: C1_7  and  O1_9 
REMARK    4  A    between atoms: O1_9  and  C4_31 
REMARK    5  A    between atoms: S_13  and  O2_22 
REMARK    6  A    between atoms: N_19  and  C2_25 
REMARK    7  A    between atoms: N_19  and  S1_28 
REMARK    8  A    between atoms: C2_20  and  O2_22 
ROOT
ATOM      1  O4  SGN d   1     -38.036  29.362 -29.032  0.00  0.00    -0.326 OA
ENDROOT
BRANCH   1   2
ATOM      2  C1  IDS d   2     -39.435  29.667 -28.950  0.00  0.00     0.268 C 
ATOM      3  C2  IDS d   2     -40.100  29.288 -30.263  0.00  0.00     0.224 C 
ATOM      4  C3  IDS d   2     -41.602  29.188 -30.053  0.00  0.00     0.189 C 
ATOM      5  C4  IDS d   2     -41.877  28.025 -29.115  0.00  0.00     0.077 C 
ATOM      6  O3  IDS d   2     -42.245  28.945 -31.314  0.00  0.00    -0.221 OA
ATOM      7  C5  IDS d   2     -40.627  27.735 -28.298  0.00  0.00     0.207 C 
ATOM      8  O5  IDS d   2     -40.054  28.973 -27.854  0.00  0.00    -0.320 OA
ATOM      9  O2  IDS d   2     -39.785  30.267 -31.265  0.00  0.00    -0.233 OA
ATOM     10  S   IDS d   2     -38.661  30.065 -32.134  0.00  0.00     0.252 S 
ATOM     11  O3S IDS d   2     -38.747  28.672 -32.760  0.00  0.00    -0.572 OA
ATOM     12  O1S IDS d   2     -38.675  31.124 -33.238  0.00  0.00    -0.572 OA
ATOM     13  O2S IDS d   2     -37.365  30.185 -31.331  0.00  0.00    -0.572 OA
ATOM     14  C6  IDS d   2     -41.003  26.884 -27.084  0.00  0.00     0.214 C 
ATOM     15  O61 IDS d   2     -41.370  27.495 -26.059  0.00  0.00    -0.646 OA
ATOM     16  O62 IDS d   2     -40.940  25.642 -27.219  0.00  0.00    -0.646 OA
ENDBRANCH 1 2
BRANCH   1  17
ATOM     17  C4  SGN d   1     -37.361  29.699 -27.811  0.00  0.00     0.180 C 
ATOM     18  C3  SGN d   1     -36.318  28.634 -27.511  0.00  0.00     0.210 C 
ATOM     19  O3  SGN d   1     -36.979  27.390 -27.232  0.00  0.00    -0.218 OA
ATOM     20  C2  SGN d   1     -35.489  29.048 -26.306  0.00  0.00     0.210 C 
ATOM     21  C1  SGN d   1     -34.898  30.426 -26.555  0.00  0.00     0.295 C 
ATOM     22  O1  SGN d   1     -34.054  30.384 -27.717  0.00  0.00    -0.188 OA
ATOM     23  O5  SGN d   1     -35.957  31.372 -26.765  0.00  0.00    -0.325 OA
ATOM     24  C5  SGN d   1     -36.678  31.049 -27.964  0.00  0.00     0.181 C 
ATOM     25  N   SGN d   1     -34.435  28.055 -26.048  0.00  0.00    -0.162 NA
ATOM     26  S1  SGN d   1     -33.346  28.644 -24.987  0.00  0.00     0.227 S 
ATOM     27  O2S SGN d   1     -32.382  29.591 -25.705  0.00  0.00    -0.577 OA
ATOM     28  O3S SGN d   1     -34.080  29.395 -23.875  0.00  0.00    -0.577 OA
ATOM     29  O1S SGN d   1     -32.555  27.485 -24.377  0.00  0.00    -0.577 OA
ATOM     30  C6  SGN d   1     -37.716  32.124 -28.233  0.00  0.00     0.214 C 
ATOM     31  O6  SGN d   1     -37.068  33.392 -28.375  0.00  0.00    -0.218 OA
ENDBRANCH   1  17
TORSDOF 8
ENDMDL
MODEL 70
REMARK VINA RESULT:      -1.6      2.862      5.900
REMARK  8 active torsions:
REMARK  status: ('A' for Active; 'I' for Inactive)
REMARK    1  A    between atoms: C6_1  and  C5_27 
REMARK    2  A    between atoms: C6_4  and  C5_23 
REMARK    3  A    between atoms: C1_7  and  O1_9 
REMARK    4  A    between atoms: O1_9  and  C4_31 
REMARK    5  A    between atoms: S_13  and  O2_22 
REMARK    6  A    between atoms: N_19  and  C2_25 
REMARK    7  A    between atoms: N_19  and  S1_28 
REMARK    8  A    between atoms: C2_20  and  O2_22 
ROOT
ATOM      1  O4  SGN d   1     -39.760  27.412 -31.860  0.00  0.00    -0.326 OA
ENDROOT
BRANCH   1   2
ATOM      2  C1  IDS d   2     -38.536  27.031 -32.503  0.00  0.00     0.268 C 
ATOM      3  C2  IDS d   2     -38.504  27.634 -33.899  0.00  0.00     0.224 C 
ATOM      4  C3  IDS d   2     -37.076  27.620 -34.418  0.00  0.00     0.189 C 
ATOM      5  C4  IDS d   2     -36.246  28.558 -33.558  0.00  0.00     0.077 C 
ATOM      6  O3  IDS d   2     -37.059  28.081 -35.778  0.00  0.00    -0.221 OA
ATOM      7  C5  IDS d   2     -36.928  28.736 -32.210  0.00  0.00     0.207 C 
ATOM      8  O5  IDS d   2     -37.394  27.462 -31.743  0.00  0.00    -0.320 OA
ATOM      9  O2  IDS d   2     -39.374  26.891 -34.766  0.00  0.00    -0.233 OA
ATOM     10  S   IDS d   2     -40.733  27.315 -34.950  0.00  0.00     0.252 S 
ATOM     11  O3S IDS d   2     -40.756  28.800 -35.318  0.00  0.00    -0.572 OA
ATOM     12  O1S IDS d   2     -41.372  26.500 -36.076  0.00  0.00    -0.572 OA
ATOM     13  O2S IDS d   2     -41.518  27.097 -33.656  0.00  0.00    -0.572 OA
ATOM     14  C6  IDS d   2     -35.924  29.309 -31.208  0.00  0.00     0.214 C 
ATOM     15  O61 IDS d   2     -35.214  28.489 -30.590  0.00  0.00    -0.646 OA
ATOM     16  O62 IDS d   2     -35.872  30.554 -31.103  0.00  0.00    -0.646 OA
ENDBRANCH 1 2
BRANCH   1  17
ATOM     17  C4  SGN d   1     -39.846  26.853 -30.540  0.00  0.00     0.180 C 
ATOM     18  C3  SGN d   1     -40.030  27.979 -29.536  0.00  0.00     0.210 C 
ATOM     19  O3  SGN d   1     -38.846  28.791 -29.513  0.00  0.00    -0.218 OA
ATOM     20  C2  SGN d   1     -40.274  27.403 -28.151  0.00  0.00     0.210 C 
ATOM     21  C1  SGN d   1     -41.450  26.441 -28.211  0.00  0.00     0.295 C 
ATOM     22  O1  SGN d   1     -42.625  27.145 -28.643  0.00  0.00    -0.188 OA
ATOM     23  O5  SGN d   1     -41.157  25.382 -29.134  0.00  0.00    -0.325 OA
ATOM     24  C5  SGN d   1     -41.033  25.907 -30.465  0.00  0.00     0.181 C 
ATOM     25  N   SGN d   1     -40.519  28.484 -27.185  0.00  0.00    -0.162 NA
ATOM     26  S1  SGN d   1     -41.107  27.878 -25.790  0.00  0.00     0.227 S 
ATOM     27  O2S SGN d   1     -42.599  27.576 -25.944  0.00  0.00    -0.577 OA
ATOM     28  O3S SGN d   1     -40.351  26.596 -25.439  0.00  0.00    -0.577 OA
ATOM     29  O1S SGN d   1     -40.911  28.902 -24.670  0.00  0.00    -0.577 OA
ATOM     30  C6  SGN d   1     -40.842  24.761 -31.443  0.00  0.00     0.214 C 
ATOM     31  O6  SGN d   1     -41.962  23.873 -31.368  0.00  0.00    -0.218 OA
ENDBRANCH   1  17
TORSDOF 8
ENDMDL
MODEL 71
REMARK VINA RESULT:      -1.5      3.673      7.123
REMARK  8 active torsions:
REMARK  status: ('A' for Active; 'I' for Inactive)
REMARK    1  A    between atoms: C6_1  and  C5_27 
REMARK    2  A    between atoms: C6_4  and  C5_23 
REMARK    3  A    between atoms: C1_7  and  O1_9 
REMARK    4  A    between atoms: O1_9  and  C4_31 
REMARK    5  A    between atoms: S_13  and  O2_22 
REMARK    6  A    between atoms: N_19  and  C2_25 
REMARK    7  A    between atoms: N_19  and  S1_28 
REMARK    8  A    between atoms: C2_20  and  O2_22 
ROOT
ATOM      1  O4  SGN d   1     -39.781  28.611 -31.211  0.00  0.00    -0.326 OA
ENDROOT
BRANCH   1   2
ATOM      2  C1  IDS d   2     -38.794  27.592 -31.422  0.00  0.00     0.268 C 
ATOM      3  C2  IDS d   2     -38.723  27.274 -32.907  0.00  0.00     0.224 C 
ATOM      4  C3  IDS d   2     -37.423  26.547 -33.202  0.00  0.00     0.189 C 
ATOM      5  C4  IDS d   2     -36.270  27.503 -32.942  0.00  0.00     0.077 C 
ATOM      6  O3  IDS d   2     -37.403  26.143 -34.580  0.00  0.00    -0.221 OA
ATOM      7  C5  IDS d   2     -36.733  28.594 -31.989  0.00  0.00     0.207 C 
ATOM      8  O5  IDS d   2     -37.507  28.005 -30.934  0.00  0.00    -0.320 OA
ATOM      9  O2  IDS d   2     -39.855  26.477 -33.286  0.00  0.00    -0.233 OA
ATOM     10  S   IDS d   2     -41.039  27.111 -33.794  0.00  0.00     0.252 S 
ATOM     11  O3S IDS d   2     -40.657  28.065 -34.928  0.00  0.00    -0.572 OA
ATOM     12  O1S IDS d   2     -41.999  26.045 -34.325  0.00  0.00    -0.572 OA
ATOM     13  O2S IDS d   2     -41.721  27.897 -32.673  0.00  0.00    -0.572 OA
ATOM     14  C6  IDS d   2     -35.510  29.294 -31.392  0.00  0.00     0.214 C 
ATOM     15  O61 IDS d   2     -35.017  28.788 -30.362  0.00  0.00    -0.646 OA
ATOM     16  O62 IDS d   2     -35.081  30.303 -31.994  0.00  0.00    -0.646 OA
ENDBRANCH 1 2
BRANCH   1  17
ATOM     17  C4  SGN d   1     -39.828  29.006 -29.832  0.00  0.00     0.180 C 
ATOM     18  C3  SGN d   1     -39.880  30.523 -29.753  0.00  0.00     0.210 C 
ATOM     19  O3  SGN d   1     -38.647  31.066 -30.246  0.00  0.00    -0.218 OA
ATOM     20  C2  SGN d   1     -40.084  30.959 -28.311  0.00  0.00     0.210 C 
ATOM     21  C1  SGN d   1     -41.322  30.277 -27.752  0.00  0.00     0.295 C 
ATOM     22  O1  SGN d   1     -42.470  30.657 -28.526  0.00  0.00    -0.188 OA
ATOM     23  O5  SGN d   1     -41.152  28.853 -27.811  0.00  0.00    -0.325 OA
ATOM     24  C5  SGN d   1     -41.069  28.421 -29.178  0.00  0.00     0.181 C 
ATOM     25  N   SGN d   1     -40.202  32.423 -28.233  0.00  0.00    -0.162 NA
ATOM     26  S1  SGN d   1     -40.748  32.873 -26.764  0.00  0.00     0.227 S 
ATOM     27  O2S SGN d   1     -42.264  32.672 -26.690  0.00  0.00    -0.577 OA
ATOM     28  O3S SGN d   1     -40.060  32.029 -25.690  0.00  0.00    -0.577 OA
ATOM     29  O1S SGN d   1     -40.423  34.349 -26.532  0.00  0.00    -0.577 OA
ATOM     30  C6  SGN d   1     -41.010  26.904 -29.224  0.00  0.00     0.214 C 
ATOM     31  O6  SGN d   1     -42.180  26.358 -28.607  0.00  0.00    -0.218 OA
ENDBRANCH   1  17
TORSDOF 8
ENDMDL
MODEL 72
REMARK VINA RESULT:      -1.5      3.858      7.974
REMARK  8 active torsions:
REMARK  status: ('A' for Active; 'I' for Inactive)
REMARK    1  A    between atoms: C6_1  and  C5_27 
REMARK    2  A    between atoms: C6_4  and  C5_23 
REMARK    3  A    between atoms: C1_7  and  O1_9 
REMARK    4  A    between atoms: O1_9  and  C4_31 
REMARK    5  A    between atoms: S_13  and  O2_22 
REMARK    6  A    between atoms: N_19  and  C2_25 
REMARK    7  A    between atoms: N_19  and  S1_28 
REMARK    8  A    between atoms: C2_20  and  O2_22 
ROOT
ATOM      1  O4  SGN d   1     -38.751  29.400 -30.402  0.00  0.00    -0.326 OA
ENDROOT
BRANCH   1   2
ATOM      2  C1  IDS d   2     -39.315  29.870 -31.634  0.00  0.00     0.268 C 
ATOM      3  C2  IDS d   2     -40.628  29.146 -31.884  0.00  0.00     0.224 C 
ATOM      4  C3  IDS d   2     -41.437  29.916 -32.914  0.00  0.00     0.189 C 
ATOM      5  C4  IDS d   2     -41.826  31.256 -32.312  0.00  0.00     0.077 C 
ATOM      6  O3  IDS d   2     -42.625  29.177 -33.238  0.00  0.00    -0.221 OA
ATOM      7  C5  IDS d   2     -40.861  31.597 -31.187  0.00  0.00     0.207 C 
ATOM      8  O5  IDS d   2     -39.523  31.292 -31.602  0.00  0.00    -0.320 OA
ATOM      9  O2  IDS d   2     -40.365  27.808 -32.332  0.00  0.00    -0.233 OA
ATOM     10  S   IDS d   2     -40.311  26.733 -31.382  0.00  0.00     0.252 S 
ATOM     11  O3S IDS d   2     -41.566  26.764 -30.507  0.00  0.00    -0.572 OA
ATOM     12  O1S IDS d   2     -40.241  25.399 -32.127  0.00  0.00    -0.572 OA
ATOM     13  O2S IDS d   2     -39.070  26.890 -30.501  0.00  0.00    -0.572 OA
ATOM     14  C6  IDS d   2     -40.967  33.090 -30.868  0.00  0.00     0.214 C 
ATOM     15  O61 IDS d   2     -40.249  33.862 -31.537  0.00  0.00    -0.646 OA
ATOM     16  O62 IDS d   2     -41.781  33.426 -29.979  0.00  0.00    -0.646 OA
ENDBRANCH 1 2
BRANCH   1  17
ATOM     17  C4  SGN d   1     -37.457  29.977 -30.172  0.00  0.00     0.180 C 
ATOM     18  C3  SGN d   1     -37.290  30.244 -28.685  0.00  0.00     0.210 C 
ATOM     19  O3  SGN d   1     -38.220  31.258 -28.278  0.00  0.00    -0.218 OA
ATOM     20  C2  SGN d   1     -35.873  30.713 -28.400  0.00  0.00     0.210 C 
ATOM     21  C1  SGN d   1     -34.888  29.694 -28.952  0.00  0.00     0.295 C 
ATOM     22  O1  SGN d   1     -35.102  28.426 -28.314  0.00  0.00    -0.188 OA
ATOM     23  O5  SGN d   1     -35.080  29.559 -30.368  0.00  0.00    -0.325 OA
ATOM     24  C5  SGN d   1     -36.380  29.012 -30.640  0.00  0.00     0.181 C 
ATOM     25  N   SGN d   1     -35.682  30.909 -26.955  0.00  0.00    -0.162 NA
ATOM     26  S1  SGN d   1     -34.098  31.084 -26.608  0.00  0.00     0.227 S 
ATOM     27  O2S SGN d   1     -33.418  29.713 -26.588  0.00  0.00    -0.577 OA
ATOM     28  O3S SGN d   1     -33.445  31.972 -27.669  0.00  0.00    -0.577 OA
ATOM     29  O1S SGN d   1     -33.949  31.743 -25.236  0.00  0.00    -0.577 OA
ATOM     30  C6  SGN d   1     -36.520  28.765 -32.132  0.00  0.00     0.214 C 
ATOM     31  O6  SGN d   1     -35.504  27.857 -32.566  0.00  0.00    -0.218 OA
ENDBRANCH   1  17
TORSDOF 8
ENDMDL
MODEL 73
REMARK VINA RESULT:      -1.5      3.546      5.521
REMARK  8 active torsions:
REMARK  status: ('A' for Active; 'I' for Inactive)
REMARK    1  A    between atoms: C6_1  and  C5_27 
REMARK    2  A    between atoms: C6_4  and  C5_23 
REMARK    3  A    between atoms: C1_7  and  O1_9 
REMARK    4  A    between atoms: O1_9  and  C4_31 
REMARK    5  A    between atoms: S_13  and  O2_22 
REMARK    6  A    between atoms: N_19  and  C2_25 
REMARK    7  A    between atoms: N_19  and  S1_28 
REMARK    8  A    between atoms: C2_20  and  O2_22 
ROOT
ATOM      1  O4  SGN d   1     -38.077  28.913 -29.286  0.00  0.00    -0.326 OA
ENDROOT
BRANCH   1   2
ATOM      2  C1  IDS d   2     -38.424  29.734 -30.409  0.00  0.00     0.268 C 
ATOM      3  C2  IDS d   2     -37.265  29.739 -31.393  0.00  0.00     0.224 C 
ATOM      4  C3  IDS d   2     -37.760  30.219 -32.747  0.00  0.00     0.189 C 
ATOM      5  C4  IDS d   2     -38.741  29.192 -33.289  0.00  0.00     0.077 C 
ATOM      6  O3  IDS d   2     -36.647  30.335 -33.648  0.00  0.00    -0.221 OA
ATOM      7  C5  IDS d   2     -39.304  28.381 -32.133  0.00  0.00     0.207 C 
ATOM      8  O5  IDS d   2     -39.623  29.262 -31.047  0.00  0.00    -0.320 OA
ATOM      9  O2  IDS d   2     -36.216  30.585 -30.900  0.00  0.00    -0.233 OA
ATOM     10  S   IDS d   2     -35.149  30.022 -30.123  0.00  0.00     0.252 S 
ATOM     11  O3S IDS d   2     -34.559  28.820 -30.865  0.00  0.00    -0.572 OA
ATOM     12  O1S IDS d   2     -34.060  31.076 -29.913  0.00  0.00    -0.572 OA
ATOM     13  O2S IDS d   2     -35.687  29.569 -28.765  0.00  0.00    -0.572 OA
ATOM     14  C6  IDS d   2     -40.574  27.661 -32.593  0.00  0.00     0.214 C 
ATOM     15  O61 IDS d   2     -41.646  28.293 -32.497  0.00  0.00    -0.646 OA
ATOM     16  O62 IDS d   2     -40.437  26.506 -33.053  0.00  0.00    -0.646 OA
ENDBRANCH 1 2
BRANCH   1  17
ATOM     17  C4  SGN d   1     -39.131  28.898 -28.311  0.00  0.00     0.180 C 
ATOM     18  C3  SGN d   1     -39.473  27.457 -27.974  0.00  0.00     0.210 C 
ATOM     19  O3  SGN d   1     -40.036  26.820 -29.131  0.00  0.00    -0.218 OA
ATOM     20  C2  SGN d   1     -40.480  27.417 -26.835  0.00  0.00     0.210 C 
ATOM     21  C1  SGN d   1     -39.932  28.205 -25.657  0.00  0.00     0.295 C 
ATOM     22  O1  SGN d   1     -38.699  27.616 -25.217  0.00  0.00    -0.188 OA
ATOM     23  O5  SGN d   1     -39.701  29.565 -26.054  0.00  0.00    -0.325 OA
ATOM     24  C5  SGN d   1     -38.671  29.619 -27.054  0.00  0.00     0.181 C 
ATOM     25  N   SGN d   1     -40.767  26.025 -26.457  0.00  0.00    -0.162 NA
ATOM     26  S1  SGN d   1     -41.572  25.974 -25.040  0.00  0.00     0.227 S 
ATOM     27  O2S SGN d   1     -40.591  26.165 -23.880  0.00  0.00    -0.577 OA
ATOM     28  O3S SGN d   1     -42.625  27.084 -25.018  0.00  0.00    -0.577 OA
ATOM     29  O1S SGN d   1     -42.264  24.618 -24.898  0.00  0.00    -0.577 OA
ATOM     30  C6  SGN d   1     -38.357  31.069 -27.376  0.00  0.00     0.214 C 
ATOM     31  O6  SGN d   1     -37.925  31.742 -26.190  0.00  0.00    -0.218 OA
ENDBRANCH   1  17
TORSDOF 8
ENDMDL
