MODEL 1
REMARK VINA RESULT:      -5.9      0.000      0.000
REMARK  13 active torsions:
REMARK  status: ('A' for Active; 'I' for Inactive)
REMARK    1  A    between atoms: C6_1  and  C5_27 
REMARK    2  A    between atoms: C6_1  and  O6_30 
REMARK    3  A    between atoms: O3_2  and  C3_3 
REMARK    4  A    between atoms: C6_4  and  C5_23 
REMARK    5  A    between atoms: C6_4  and  O62_11 
REMARK    6  A    between atoms: C1_6  and  O1_26 
REMARK    7  A    between atoms: C1_7  and  O1_9 
REMARK    8  A    between atoms: O1_9  and  C4_31 
REMARK    9  A    between atoms: C3_10  and  O3_29 
REMARK   10  A    between atoms: S_13  and  O2_22 
REMARK   11  A    between atoms: N_19  and  C2_25 
REMARK   12  A    between atoms: N_19  and  S1_28 
REMARK   13  A    between atoms: C2_20  and  O2_22 
ROOT
ATOM      1  C1  SGN d   1     -41.469  21.778 -33.151  0.00  0.00     0.000 C 
ATOM      2  C2  SGN d   1     -40.282  21.979 -32.222  0.00  0.00     0.000 C 
ATOM      3  C3  SGN d   1     -39.947  23.460 -32.152  0.00  0.00     0.000 C 
ATOM      4  C4  SGN d   1     -39.725  24.006 -33.553  0.00  0.00     0.000 C 
ATOM      5  C5  SGN d   1     -40.931  23.685 -34.421  0.00  0.00     0.000 C 
ATOM      6  O5  SGN d   1     -41.141  22.265 -34.461  0.00  0.00     0.000 OA
ENDROOT
BRANCH   6   7
ATOM      7  O1  SGN d   1     -39.553  25.430 -33.479  0.00  0.00     0.000 OA
BRANCH   7   8
ATOM      8  C1  IDS d   2     -40.241  26.290 -32.560  0.00  0.00     0.000 C 
ATOM      9  C2  IDS d   2     -39.241  27.261 -31.952  0.00  0.00     0.000 C 
ATOM     10  C3  IDS d   2     -39.991  28.431 -31.336  0.00  0.00     0.000 C 
ATOM     11  C4  IDS d   2     -40.671  29.204 -32.453  0.00  0.00     0.000 C 
ATOM     12  C5  IDS d   2     -40.848  28.291 -33.657  0.00  0.00     0.000 C 
ATOM     13  O5  IDS d   2     -41.303  27.005 -33.213  0.00  0.00     0.000 OA
BRANCH   9  14
ATOM     14  O2  IDS d   2     -38.447  26.584 -30.967  0.00  0.00     0.000 OA
BRANCH  14  15
ATOM     15  S   IDS d   2     -37.017  26.569 -31.088  0.00  0.00     0.000 S 
ATOM     16  O3S IDS d   2     -36.433  27.781 -30.359  0.00  0.00     0.000 OA
ATOM     17  O1S IDS d   2     -36.466  25.285 -30.466  0.00  0.00     0.000 OA
ATOM     18  O2S IDS d   2     -36.627  26.626 -32.566  0.00  0.00     0.000 OA
ENDBRANCH  14  15
ENDBRANCH   9  14
BRANCH  10  19
ATOM     19  O3  IDS d   2     -39.060  29.291 -30.661  0.00  0.00     0.000 OA
ATOM     20  H   IDS d   2     -38.974  29.012 -29.736  0.00  0.00     0.000 HD
ENDBRANCH  10  19
BRANCH  12  21
ATOM     21  C6  IDS d   2     -41.886  28.899 -34.603  0.00  0.00     0.000 C 
ATOM     22  O61 IDS d   2     -42.553  29.860 -34.166  0.00  0.00     0.000 OA
BRANCH  21  23
ATOM     23  O62 IDS d   2     -41.969  28.404 -35.749  0.00  0.00     0.000 OA
ENDBRANCH  21  23
ENDBRANCH  12  21
ENDBRANCH   7   8
ENDBRANCH   6   7
BRANCH   1  25
ATOM     25  O3  SGN d   1     -38.754  23.644 -31.377  0.00  0.00    -0.391 OA
ATOM     26  H   SGN d   1     -38.078  23.621 -32.072  0.00  0.00     0.210 HD
ENDBRANCH   1  25
BRANCH   5  27
ATOM     27  C6  SGN d   1     -40.703  24.200 -35.832  0.00  0.00     0.198 C 
BRANCH  27  28
ATOM     28  O6  SGN d   1     -41.045  25.587 -35.898  0.00  0.00    -0.398 OA
ATOM     29  H   SGN d   1     -41.626  25.812 -35.154  0.00  0.00     0.209 HD
ENDBRANCH  27  28
ENDBRANCH   5  27
BRANCH   4  30
ATOM     30  N   SGN d   1     -40.565  21.456 -30.877  0.00  0.00    -0.189 NA
ATOM     31  H   SGN d   1     -39.584  21.268 -30.672  0.00  0.00     0.143 HD
BRANCH  30  32
ATOM     32  S1  SGN d   1     -41.389  21.594 -29.476  0.00  0.00     0.183 S 
ATOM     33  O2S SGN d   1     -40.431  21.984 -28.348  0.00  0.00    -0.582 OA
ATOM     34  O3S SGN d   1     -42.472  22.663 -29.631  0.00  0.00    -0.582 OA
ATOM     35  O1S SGN d   1     -42.046  20.254 -29.141  0.00  0.00    -0.582 OA
ENDBRANCH  30  32
ENDBRANCH   4  30
BRANCH   2  36
ATOM     36  O1  SGN d   1     -42.604  22.494 -32.641  0.00  0.00    -0.369 OA
ATOM     37  H   SGN d   1     -42.593  23.106 -31.889  0.00  0.00     0.212 HD
ENDBRANCH   2  36
TORSDOF 13
ENDMDL
MODEL 2
REMARK VINA RESULT:      -5.8      2.597      3.720
REMARK  13 active torsions:
REMARK  status: ('A' for Active; 'I' for Inactive)
REMARK    1  A    between atoms: C6_1  and  C5_27 
REMARK    2  A    between atoms: C6_1  and  O6_30 
REMARK    3  A    between atoms: O3_2  and  C3_3 
REMARK    4  A    between atoms: C6_4  and  C5_23 
REMARK    5  A    between atoms: C6_4  and  O62_11 
REMARK    6  A    between atoms: C1_6  and  O1_26 
REMARK    7  A    between atoms: C1_7  and  O1_9 
REMARK    8  A    between atoms: O1_9  and  C4_31 
REMARK    9  A    between atoms: C3_10  and  O3_29 
REMARK   10  A    between atoms: S_13  and  O2_22 
REMARK   11  A    between atoms: N_19  and  C2_25 
REMARK   12  A    between atoms: N_19  and  S1_28 
REMARK   13  A    between atoms: C2_20  and  O2_22 
ROOT
ATOM      1  C1  SGN d   1     -38.466  24.867 -34.450  0.00  0.00     0.000 C 
ATOM      2  C2  SGN d   1     -37.832  24.392 -33.153  0.00  0.00     0.000 C 
ATOM      3  C3  SGN d   1     -37.940  25.493 -32.111  0.00  0.00     0.000 C 
ATOM      4  C4  SGN d   1     -37.334  26.778 -32.651  0.00  0.00     0.000 C 
ATOM      5  C5  SGN d   1     -37.978  27.122 -33.984  0.00  0.00     0.000 C 
ATOM      6  O5  SGN d   1     -37.788  26.044 -34.913  0.00  0.00     0.000 OA
ENDROOT
BRANCH   6   7
ATOM      7  O1  SGN d   1     -37.574  27.839 -31.713  0.00  0.00     0.000 OA
BRANCH   7   8
ATOM      8  C1  IDS d   2     -38.786  28.126 -31.002  0.00  0.00     0.000 C 
ATOM      9  C2  IDS d   2     -38.433  28.730 -29.652  0.00  0.00     0.000 C 
ATOM     10  C3  IDS d   2     -39.655  29.431 -29.083  0.00  0.00     0.000 C 
ATOM     11  C4  IDS d   2     -39.987  30.615 -29.977  0.00  0.00     0.000 C 
ATOM     12  C5  IDS d   2     -39.393  30.381 -31.357  0.00  0.00     0.000 C 
ATOM     13  O5  IDS d   2     -39.627  29.021 -31.749  0.00  0.00     0.000 OA
BRANCH   9  14
ATOM     14  O2  IDS d   2     -37.973  27.699 -28.766  0.00  0.00     0.000 OA
BRANCH  14  15
ATOM     15  S   IDS d   2     -36.673  27.799 -28.166  0.00  0.00     0.000 S 
ATOM     16  O3S IDS d   2     -35.701  26.873 -28.900  0.00  0.00     0.000 OA
ATOM     17  O1S IDS d   2     -36.177  29.243 -28.266  0.00  0.00     0.000 OA
ATOM     18  O2S IDS d   2     -36.756  27.390 -26.695  0.00  0.00     0.000 OA
ENDBRANCH  14  15
ENDBRANCH   9  14
BRANCH  10  19
ATOM     19  O3  IDS d   2     -39.361  29.903 -27.759  0.00  0.00     0.000 OA
ATOM     20  H   IDS d   2     -39.855  30.720 -27.590  0.00  0.00     0.000 HD
ENDBRANCH  10  19
BRANCH  12  21
ATOM     21  C6  IDS d   2     -40.061  31.322 -32.361  0.00  0.00     0.000 C 
ATOM     22  O61 IDS d   2     -41.288  31.510 -32.227  0.00  0.00     0.000 OA
BRANCH  21  23
ATOM     23  O62 IDS d   2     -39.324  31.852 -33.222  0.00  0.00     0.000 OA
ENDBRANCH  21  23
ENDBRANCH  12  21
ENDBRANCH   7   8
ENDBRANCH   6   7
BRANCH   1  25
ATOM     25  O3  SGN d   1     -37.235  25.098 -30.924  0.00  0.00    -0.391 OA
ATOM     26  H   SGN d   1     -37.575  25.980 -30.705  0.00  0.00     0.210 HD
ENDBRANCH   1  25
BRANCH   5  27
ATOM     27  C6  SGN d   1     -37.356  28.389 -34.546  0.00  0.00     0.198 C 
BRANCH  27  28
ATOM     28  O6  SGN d   1     -36.914  28.152 -35.886  0.00  0.00    -0.398 OA
ATOM     29  H   SGN d   1     -36.147  28.716 -36.077  0.00  0.00     0.209 HD
ENDBRANCH  27  28
ENDBRANCH   5  27
BRANCH   4  30
ATOM     30  N   SGN d   1     -38.475  23.163 -32.665  0.00  0.00    -0.189 NA
ATOM     31  H   SGN d   1     -37.653  22.845 -32.152  0.00  0.00     0.143 HD
BRANCH  30  32
ATOM     32  S1  SGN d   1     -39.804  22.448 -32.047  0.00  0.00     0.183 S 
ATOM     33  O2S SGN d   1     -40.139  23.065 -30.686  0.00  0.00    -0.582 OA
ATOM     34  O3S SGN d   1     -40.977  22.647 -33.009  0.00  0.00    -0.582 OA
ATOM     35  O1S SGN d   1     -39.541  20.952 -31.872  0.00  0.00    -0.582 OA
ENDBRANCH  30  32
ENDBRANCH   4  30
BRANCH   2  36
ATOM     36  O1  SGN d   1     -39.852  25.168 -34.225  0.00  0.00    -0.369 OA
ATOM     37  H   SGN d   1     -39.981  25.800 -33.500  0.00  0.00     0.212 HD
ENDBRANCH   2  36
TORSDOF 13
ENDMDL
MODEL 3
REMARK VINA RESULT:      -5.8      2.596      3.694
REMARK  13 active torsions:
REMARK  status: ('A' for Active; 'I' for Inactive)
REMARK    1  A    between atoms: C6_1  and  C5_27 
REMARK    2  A    between atoms: C6_1  and  O6_30 
REMARK    3  A    between atoms: O3_2  and  C3_3 
REMARK    4  A    between atoms: C6_4  and  C5_23 
REMARK    5  A    between atoms: C6_4  and  O62_11 
REMARK    6  A    between atoms: C1_6  and  O1_26 
REMARK    7  A    between atoms: C1_7  and  O1_9 
REMARK    8  A    between atoms: O1_9  and  C4_31 
REMARK    9  A    between atoms: C3_10  and  O3_29 
REMARK   10  A    between atoms: S_13  and  O2_22 
REMARK   11  A    between atoms: N_19  and  C2_25 
REMARK   12  A    between atoms: N_19  and  S1_28 
REMARK   13  A    between atoms: C2_20  and  O2_22 
ROOT
ATOM      1  C1  SGN d   1     -38.472  24.882 -34.411  0.00  0.00     0.000 C 
ATOM      2  C2  SGN d   1     -37.826  24.397 -33.124  0.00  0.00     0.000 C 
ATOM      3  C3  SGN d   1     -37.926  25.489 -32.071  0.00  0.00     0.000 C 
ATOM      4  C4  SGN d   1     -37.325  26.779 -32.607  0.00  0.00     0.000 C 
ATOM      5  C5  SGN d   1     -37.982  27.134 -33.931  0.00  0.00     0.000 C 
ATOM      6  O5  SGN d   1     -37.799  26.064 -34.871  0.00  0.00     0.000 OA
ENDROOT
BRANCH   6   7
ATOM      7  O1  SGN d   1     -37.558  27.832 -31.659  0.00  0.00     0.000 OA
BRANCH   7   8
ATOM      8  C1  IDS d   2     -38.765  28.134 -30.946  0.00  0.00     0.000 C 
ATOM      9  C2  IDS d   2     -38.404  28.759 -29.608  0.00  0.00     0.000 C 
ATOM     10  C3  IDS d   2     -39.621  29.472 -29.043  0.00  0.00     0.000 C 
ATOM     11  C4  IDS d   2     -39.955  30.642 -29.954  0.00  0.00     0.000 C 
ATOM     12  C5  IDS d   2     -39.368  30.384 -31.334  0.00  0.00     0.000 C 
ATOM     13  O5  IDS d   2     -39.608  29.019 -31.703  0.00  0.00     0.000 OA
BRANCH   9  14
ATOM     14  O2  IDS d   2     -37.941  27.741 -28.708  0.00  0.00     0.000 OA
BRANCH  14  15
ATOM     15  S   IDS d   2     -36.594  27.781 -28.214  0.00  0.00     0.000 S 
ATOM     16  O3S IDS d   2     -36.591  27.455 -26.719  0.00  0.00     0.000 OA
ATOM     17  O1S IDS d   2     -35.747  26.750 -28.963  0.00  0.00     0.000 OA
ATOM     18  O2S IDS d   2     -36.009  29.177 -28.434  0.00  0.00     0.000 OA
ENDBRANCH  14  15
ENDBRANCH   9  14
BRANCH  10  19
ATOM     19  O3  IDS d   2     -39.319  29.965 -27.729  0.00  0.00     0.000 OA
ATOM     20  H   IDS d   2     -38.534  30.532 -27.769  0.00  0.00     0.000 HD
ENDBRANCH  10  19
BRANCH  12  21
ATOM     21  C6  IDS d   2     -40.040  31.311 -32.349  0.00  0.00     0.000 C 
ATOM     22  O61 IDS d   2     -41.266  31.502 -32.213  0.00  0.00     0.000 OA
BRANCH  21  23
ATOM     23  O62 IDS d   2     -39.306  31.826 -33.221  0.00  0.00     0.000 OA
ENDBRANCH  21  23
ENDBRANCH  12  21
ENDBRANCH   7   8
ENDBRANCH   6   7
BRANCH   1  25
ATOM     25  O3  SGN d   1     -37.210  25.086 -30.895  0.00  0.00    -0.391 OA
ATOM     26  H   SGN d   1     -36.267  25.213 -31.082  0.00  0.00     0.210 HD
ENDBRANCH   1  25
BRANCH   5  27
ATOM     27  C6  SGN d   1     -37.366  28.405 -34.489  0.00  0.00     0.198 C 
BRANCH  27  28
ATOM     28  O6  SGN d   1     -36.930  28.179 -35.832  0.00  0.00    -0.398 OA
ATOM     29  H   SGN d   1     -37.702  28.136 -36.419  0.00  0.00     0.209 HD
ENDBRANCH  27  28
ENDBRANCH   5  27
BRANCH   4  30
ATOM     30  N   SGN d   1     -38.464  23.164 -32.640  0.00  0.00    -0.189 NA
ATOM     31  H   SGN d   1     -37.648  22.845 -32.118  0.00  0.00     0.143 HD
BRANCH  30  32
ATOM     32  S1  SGN d   1     -39.800  22.447 -32.037  0.00  0.00     0.183 S 
ATOM     33  O2S SGN d   1     -39.556  20.944 -31.883  0.00  0.00    -0.582 OA
ATOM     34  O3S SGN d   1     -40.131  23.062 -30.677  0.00  0.00    -0.582 OA
ATOM     35  O1S SGN d   1     -40.972  22.673 -32.993  0.00  0.00    -0.582 OA
ENDBRANCH  30  32
ENDBRANCH   4  30
BRANCH   2  36
ATOM     36  O1  SGN d   1     -39.856  25.180 -34.171  0.00  0.00    -0.369 OA
ATOM     37  H   SGN d   1     -39.566  26.094 -34.025  0.00  0.00     0.212 HD
ENDBRANCH   2  36
TORSDOF 13
ENDMDL
MODEL 4
REMARK VINA RESULT:      -5.7      1.853      2.600
REMARK  13 active torsions:
REMARK  status: ('A' for Active; 'I' for Inactive)
REMARK    1  A    between atoms: C6_1  and  C5_27 
REMARK    2  A    between atoms: C6_1  and  O6_30 
REMARK    3  A    between atoms: O3_2  and  C3_3 
REMARK    4  A    between atoms: C6_4  and  C5_23 
REMARK    5  A    between atoms: C6_4  and  O62_11 
REMARK    6  A    between atoms: C1_6  and  O1_26 
REMARK    7  A    between atoms: C1_7  and  O1_9 
REMARK    8  A    between atoms: O1_9  and  C4_31 
REMARK    9  A    between atoms: C3_10  and  O3_29 
REMARK   10  A    between atoms: S_13  and  O2_22 
REMARK   11  A    between atoms: N_19  and  C2_25 
REMARK   12  A    between atoms: N_19  and  S1_28 
REMARK   13  A    between atoms: C2_20  and  O2_22 
ROOT
ATOM      1  C1  SGN d   1     -41.204  24.223 -34.731  0.00  0.00     0.000 C 
ATOM      2  C2  SGN d   1     -39.840  23.970 -34.113  0.00  0.00     0.000 C 
ATOM      3  C3  SGN d   1     -39.426  25.185 -33.298  0.00  0.00     0.000 C 
ATOM      4  C4  SGN d   1     -39.481  26.432 -34.165  0.00  0.00     0.000 C 
ATOM      5  C5  SGN d   1     -40.858  26.550 -34.798  0.00  0.00     0.000 C 
ATOM      6  O5  SGN d   1     -41.140  25.379 -35.579  0.00  0.00     0.000 OA
ENDROOT
BRANCH   6   7
ATOM      7  O1  SGN d   1     -39.229  27.583 -33.345  0.00  0.00     0.000 OA
BRANCH   7   8
ATOM      8  C1  IDS d   2     -39.861  28.074 -32.155  0.00  0.00     0.000 C 
ATOM      9  C2  IDS d   2     -38.790  28.401 -31.126  0.00  0.00     0.000 C 
ATOM     10  C3  IDS d   2     -39.380  29.309 -30.060  0.00  0.00     0.000 C 
ATOM     11  C4  IDS d   2     -39.732  30.638 -30.707  0.00  0.00     0.000 C 
ATOM     12  C5  IDS d   2     -39.909  30.435 -32.203  0.00  0.00     0.000 C 
ATOM     13  O5  IDS d   2     -40.662  29.235 -32.433  0.00  0.00     0.000 OA
BRANCH   9  14
ATOM     14  O2  IDS d   2     -38.289  27.186 -30.548  0.00  0.00     0.000 OA
BRANCH  14  15
ATOM     15  S   IDS d   2     -36.883  26.904 -30.582  0.00  0.00     0.000 S 
ATOM     16  O3S IDS d   2     -36.200  27.578 -29.390  0.00  0.00     0.000 OA
ATOM     17  O1S IDS d   2     -36.665  25.392 -30.508  0.00  0.00     0.000 OA
ATOM     18  O2S IDS d   2     -36.284  27.441 -31.884  0.00  0.00     0.000 OA
ENDBRANCH  14  15
ENDBRANCH   9  14
BRANCH  10  19
ATOM     19  O3  IDS d   2     -38.406  29.526 -29.027  0.00  0.00     0.000 OA
ATOM     20  H   IDS d   2     -38.459  28.808 -28.378  0.00  0.00     0.000 HD
ENDBRANCH  10  19
BRANCH  12  21
ATOM     21  C6  IDS d   2     -40.664  31.629 -32.789  0.00  0.00     0.000 C 
ATOM     22  O61 IDS d   2     -40.194  32.762 -32.559  0.00  0.00     0.000 OA
BRANCH  21  23
ATOM     23  O62 IDS d   2     -41.680  31.379 -33.476  0.00  0.00     0.000 OA
ENDBRANCH  21  23
ENDBRANCH  12  21
ENDBRANCH   7   8
ENDBRANCH   6   7
BRANCH   1  25
ATOM     25  O3  SGN d   1     -38.088  25.002 -32.814  0.00  0.00    -0.391 OA
ATOM     26  H   SGN d   1     -38.425  24.858 -31.916  0.00  0.00     0.210 HD
ENDBRANCH   1  25
BRANCH   5  27
ATOM     27  C6  SGN d   1     -40.911  27.778 -35.691  0.00  0.00     0.198 C 
BRANCH  27  28
ATOM     28  O6  SGN d   1     -41.681  28.802 -35.055  0.00  0.00    -0.398 OA
ATOM     29  H   SGN d   1     -42.543  28.878 -35.495  0.00  0.00     0.209 HD
ENDBRANCH  27  28
ENDBRANCH   5  27
BRANCH   4  30
ATOM     30  N   SGN d   1     -39.854  22.768 -33.265  0.00  0.00    -0.189 NA
ATOM     31  H   SGN d   1     -38.859  22.581 -33.389  0.00  0.00     0.143 HD
BRANCH  30  32
ATOM     32  S1  SGN d   1     -40.373  22.039 -31.901  0.00  0.00     0.183 S 
ATOM     33  O2S SGN d   1     -39.746  20.648 -31.787  0.00  0.00    -0.582 OA
ATOM     34  O3S SGN d   1     -39.974  22.889 -30.693  0.00  0.00    -0.582 OA
ATOM     35  O1S SGN d   1     -41.896  21.906 -31.945  0.00  0.00    -0.582 OA
ENDBRANCH  30  32
ENDBRANCH   4  30
BRANCH   2  36
ATOM     36  O1  SGN d   1     -42.170  24.443 -33.691  0.00  0.00    -0.369 OA
ATOM     37  H   SGN d   1     -41.949  25.382 -33.585  0.00  0.00     0.212 HD
ENDBRANCH   2  36
TORSDOF 13
ENDMDL
MODEL 5
REMARK VINA RESULT:      -5.7      2.310      5.929
REMARK  13 active torsions:
REMARK  status: ('A' for Active; 'I' for Inactive)
REMARK    1  A    between atoms: C6_1  and  C5_27 
REMARK    2  A    between atoms: C6_1  and  O6_30 
REMARK    3  A    between atoms: O3_2  and  C3_3 
REMARK    4  A    between atoms: C6_4  and  C5_23 
REMARK    5  A    between atoms: C6_4  and  O62_11 
REMARK    6  A    between atoms: C1_6  and  O1_26 
REMARK    7  A    between atoms: C1_7  and  O1_9 
REMARK    8  A    between atoms: O1_9  and  C4_31 
REMARK    9  A    between atoms: C3_10  and  O3_29 
REMARK   10  A    between atoms: S_13  and  O2_22 
REMARK   11  A    between atoms: N_19  and  C2_25 
REMARK   12  A    between atoms: N_19  and  S1_28 
REMARK   13  A    between atoms: C2_20  and  O2_22 
ROOT
ATOM      1  C1  SGN d   1     -36.690  28.212 -32.746  0.00  0.00     0.000 C 
ATOM      2  C2  SGN d   1     -37.347  27.722 -31.467  0.00  0.00     0.000 C 
ATOM      3  C3  SGN d   1     -38.373  26.654 -31.809  0.00  0.00     0.000 C 
ATOM      4  C4  SGN d   1     -39.359  27.192 -32.832  0.00  0.00     0.000 C 
ATOM      5  C5  SGN d   1     -38.599  27.729 -34.035  0.00  0.00     0.000 C 
ATOM      6  O5  SGN d   1     -37.689  28.759 -33.620  0.00  0.00     0.000 OA
ENDROOT
BRANCH   6   7
ATOM      7  O1  SGN d   1     -40.228  26.129 -33.249  0.00  0.00     0.000 OA
BRANCH   7   8
ATOM      8  C1  IDS d   2     -39.958  24.829 -33.792  0.00  0.00     0.000 C 
ATOM      9  C2  IDS d   2     -40.845  23.810 -33.094  0.00  0.00     0.000 C 
ATOM     10  C3  IDS d   2     -40.900  22.541 -33.927  0.00  0.00     0.000 C 
ATOM     11  C4  IDS d   2     -41.608  22.857 -35.234  0.00  0.00     0.000 C 
ATOM     12  C5  IDS d   2     -41.513  24.351 -35.504  0.00  0.00     0.000 C 
ATOM     13  O5  IDS d   2     -40.183  24.802 -35.212  0.00  0.00     0.000 OA
BRANCH   9  14
ATOM     14  O2  IDS d   2     -40.331  23.541 -31.781  0.00  0.00     0.000 OA
BRANCH  14  15
ATOM     15  S   IDS d   2     -41.225  23.485 -30.660  0.00  0.00     0.000 S 
ATOM     16  O3S IDS d   2     -42.617  23.069 -31.141  0.00  0.00     0.000 OA
ATOM     17  O1S IDS d   2     -40.708  22.462 -29.647  0.00  0.00     0.000 OA
ATOM     18  O2S IDS d   2     -41.305  24.861 -29.998  0.00  0.00     0.000 OA
ENDBRANCH  14  15
ENDBRANCH   9  14
BRANCH  10  19
ATOM     19  O3  IDS d   2     -41.641  21.536 -33.217  0.00  0.00     0.000 OA
ATOM     20  H   IDS d   2     -41.231  20.669 -33.362  0.00  0.00     0.000 HD
ENDBRANCH  10  19
BRANCH  12  21
ATOM     21  C6  IDS d   2     -41.828  24.618 -36.978  0.00  0.00     0.000 C 
ATOM     22  O61 IDS d   2     -42.625  23.836 -37.535  0.00  0.00     0.000 OA
BRANCH  21  23
ATOM     23  O62 IDS d   2     -41.283  25.614 -37.504  0.00  0.00     0.000 OA
ENDBRANCH  21  23
ENDBRANCH  12  21
ENDBRANCH   7   8
ENDBRANCH   6   7
BRANCH   1  25
ATOM     25  O3  SGN d   1     -39.083  26.275 -30.620  0.00  0.00    -0.391 OA
ATOM     26  H   SGN d   1     -39.908  26.705 -30.894  0.00  0.00     0.210 HD
ENDBRANCH   1  25
BRANCH   5  27
ATOM     27  C6  SGN d   1     -39.576  28.298 -35.050  0.00  0.00     0.198 C 
BRANCH  27  28
ATOM     28  O6  SGN d   1     -39.657  27.425 -36.180  0.00  0.00    -0.398 OA
ATOM     29  H   SGN d   1     -40.476  26.907 -36.129  0.00  0.00     0.209 HD
ENDBRANCH  27  28
ENDBRANCH   5  27
BRANCH   4  30
ATOM     30  N   SGN d   1     -36.350  27.188 -30.527  0.00  0.00    -0.189 NA
ATOM     31  H   SGN d   1     -35.809  27.794 -31.143  0.00  0.00     0.143 HD
BRANCH  30  32
ATOM     32  S1  SGN d   1     -36.170  27.691 -28.986  0.00  0.00     0.183 S 
ATOM     33  O2S SGN d   1     -34.961  26.998 -28.352  0.00  0.00    -0.582 OA
ATOM     34  O3S SGN d   1     -35.967  29.207 -28.970  0.00  0.00    -0.582 OA
ATOM     35  O1S SGN d   1     -37.428  27.341 -28.188  0.00  0.00    -0.582 OA
ENDBRANCH  30  32
ENDBRANCH   4  30
BRANCH   2  36
ATOM     36  O1  SGN d   1     -36.030  27.116 -33.398  0.00  0.00    -0.369 OA
ATOM     37  H   SGN d   1     -36.814  26.701 -33.790  0.00  0.00     0.212 HD
ENDBRANCH   2  36
TORSDOF 13
ENDMDL
MODEL 6
REMARK VINA RESULT:      -5.6      2.922      4.285
REMARK  13 active torsions:
REMARK  status: ('A' for Active; 'I' for Inactive)
REMARK    1  A    between atoms: C6_1  and  C5_27 
REMARK    2  A    between atoms: C6_1  and  O6_30 
REMARK    3  A    between atoms: O3_2  and  C3_3 
REMARK    4  A    between atoms: C6_4  and  C5_23 
REMARK    5  A    between atoms: C6_4  and  O62_11 
REMARK    6  A    between atoms: C1_6  and  O1_26 
REMARK    7  A    between atoms: C1_7  and  O1_9 
REMARK    8  A    between atoms: O1_9  and  C4_31 
REMARK    9  A    between atoms: C3_10  and  O3_29 
REMARK   10  A    between atoms: S_13  and  O2_22 
REMARK   11  A    between atoms: N_19  and  C2_25 
REMARK   12  A    between atoms: N_19  and  S1_28 
REMARK   13  A    between atoms: C2_20  and  O2_22 
ROOT
ATOM      1  C1  SGN d   1     -38.080  25.477 -34.226  0.00  0.00     0.000 C 
ATOM      2  C2  SGN d   1     -37.506  24.921 -32.933  0.00  0.00     0.000 C 
ATOM      3  C3  SGN d   1     -37.705  25.938 -31.821  0.00  0.00     0.000 C 
ATOM      4  C4  SGN d   1     -37.106  27.274 -32.229  0.00  0.00     0.000 C 
ATOM      5  C5  SGN d   1     -37.684  27.702 -33.569  0.00  0.00     0.000 C 
ATOM      6  O5  SGN d   1     -37.410  26.701 -34.562  0.00  0.00     0.000 OA
ENDROOT
BRANCH   6   7
ATOM      7  O1  SGN d   1     -37.429  28.256 -31.232  0.00  0.00     0.000 OA
BRANCH   7   8
ATOM      8  C1  IDS d   2     -38.654  28.272 -30.486  0.00  0.00     0.000 C 
ATOM      9  C2  IDS d   2     -38.357  28.710 -29.061  0.00  0.00     0.000 C 
ATOM     10  C3  IDS d   2     -39.648  29.152 -28.393  0.00  0.00     0.000 C 
ATOM     11  C4  IDS d   2     -40.149  30.401 -29.100  0.00  0.00     0.000 C 
ATOM     12  C5  IDS d   2     -39.556  30.455 -30.499  0.00  0.00     0.000 C 
ATOM     13  O5  IDS d   2     -39.619  29.150 -31.091  0.00  0.00     0.000 OA
BRANCH   9  14
ATOM     14  O2  IDS d   2     -37.749  27.628 -28.339  0.00  0.00     0.000 OA
BRANCH  14  15
ATOM     15  S   IDS d   2     -36.427  27.781 -27.802  0.00  0.00     0.000 S 
ATOM     16  O3S IDS d   2     -36.006  29.249 -27.896  0.00  0.00     0.000 OA
ATOM     17  O1S IDS d   2     -36.420  27.341 -26.337  0.00  0.00     0.000 OA
ATOM     18  O2S IDS d   2     -35.448  26.916 -28.597  0.00  0.00     0.000 OA
ENDBRANCH  14  15
ENDBRANCH   9  14
BRANCH  10  19
ATOM     19  O3  IDS d   2     -39.392  29.456 -27.013  0.00  0.00     0.000 OA
ATOM     20  H   IDS d   2     -38.444  29.366 -26.833  0.00  0.00     0.000 HD
ENDBRANCH  10  19
BRANCH  12  21
ATOM     21  C6  IDS d   2     -40.360  31.439 -31.350  0.00  0.00     0.000 C 
ATOM     22  O61 IDS d   2     -39.794  31.905 -32.361  0.00  0.00     0.000 OA
BRANCH  21  23
ATOM     23  O62 IDS d   2     -41.532  31.681 -30.985  0.00  0.00     0.000 OA
ENDBRANCH  21  23
ENDBRANCH  12  21
ENDBRANCH   7   8
ENDBRANCH   6   7
BRANCH   1  25
ATOM     25  O3  SGN d   1     -37.057  25.473 -30.628  0.00  0.00    -0.391 OA
ATOM     26  H   SGN d   1     -37.611  26.205 -30.314  0.00  0.00     0.210 HD
ENDBRANCH   1  25
BRANCH   5  27
ATOM     27  C6  SGN d   1     -37.067  29.021 -33.999  0.00  0.00     0.198 C 
BRANCH  27  28
ATOM     28  O6  SGN d   1     -37.730  30.101 -33.334  0.00  0.00    -0.398 OA
ATOM     29  H   SGN d   1     -37.068  30.691 -32.938  0.00  0.00     0.209 HD
ENDBRANCH  27  28
ENDBRANCH   5  27
BRANCH   4  30
ATOM     30  N   SGN d   1     -38.141  23.644 -32.575  0.00  0.00    -0.189 NA
ATOM     31  H   SGN d   1     -37.420  23.321 -31.929  0.00  0.00     0.143 HD
BRANCH  30  32
ATOM     32  S1  SGN d   1     -39.544  22.885 -32.237  0.00  0.00     0.183 S 
ATOM     33  O2S SGN d   1     -40.448  22.895 -33.472  0.00  0.00    -0.582 OA
ATOM     34  O3S SGN d   1     -39.249  21.443 -31.821  0.00  0.00    -0.582 OA
ATOM     35  O1S SGN d   1     -40.249  23.608 -31.089  0.00  0.00    -0.582 OA
ENDBRANCH  30  32
ENDBRANCH   4  30
BRANCH   2  36
ATOM     36  O1  SGN d   1     -39.484  25.726 -34.061  0.00  0.00    -0.369 OA
ATOM     37  H   SGN d   1     -39.923  25.821 -33.201  0.00  0.00     0.212 HD
ENDBRANCH   2  36
TORSDOF 13
ENDMDL
MODEL 7
REMARK VINA RESULT:      -5.6      3.336      4.984
REMARK  13 active torsions:
REMARK  status: ('A' for Active; 'I' for Inactive)
REMARK    1  A    between atoms: C6_1  and  C5_27 
REMARK    2  A    between atoms: C6_1  and  O6_30 
REMARK    3  A    between atoms: O3_2  and  C3_3 
REMARK    4  A    between atoms: C6_4  and  C5_23 
REMARK    5  A    between atoms: C6_4  and  O62_11 
REMARK    6  A    between atoms: C1_6  and  O1_26 
REMARK    7  A    between atoms: C1_7  and  O1_9 
REMARK    8  A    between atoms: O1_9  and  C4_31 
REMARK    9  A    between atoms: C3_10  and  O3_29 
REMARK   10  A    between atoms: S_13  and  O2_22 
REMARK   11  A    between atoms: N_19  and  C2_25 
REMARK   12  A    between atoms: N_19  and  S1_28 
REMARK   13  A    between atoms: C2_20  and  O2_22 
ROOT
ATOM      1  C1  SGN d   1     -37.669  26.404 -33.918  0.00  0.00     0.000 C 
ATOM      2  C2  SGN d   1     -37.232  25.764 -32.611  0.00  0.00     0.000 C 
ATOM      3  C3  SGN d   1     -37.626  26.669 -31.455  0.00  0.00     0.000 C 
ATOM      4  C4  SGN d   1     -37.058  28.062 -31.672  0.00  0.00     0.000 C 
ATOM      5  C5  SGN d   1     -37.486  28.578 -33.036  0.00  0.00     0.000 C 
ATOM      6  O5  SGN d   1     -37.034  27.683 -34.063  0.00  0.00     0.000 OA
ENDROOT
BRANCH   6   7
ATOM      7  O1  SGN d   1     -37.558  28.936 -30.649  0.00  0.00     0.000 OA
BRANCH   7   8
ATOM      8  C1  IDS d   2     -38.880  28.889 -30.093  0.00  0.00     0.000 C 
ATOM      9  C2  IDS d   2     -38.788  29.078 -28.587  0.00  0.00     0.000 C 
ATOM     10  C3  IDS d   2     -40.154  29.466 -28.047  0.00  0.00     0.000 C 
ATOM     11  C4  IDS d   2     -40.516  30.835 -28.601  0.00  0.00     0.000 C 
ATOM     12  C5  IDS d   2     -39.720  31.085 -29.872  0.00  0.00     0.000 C 
ATOM     13  O5  IDS d   2     -39.724  29.897 -30.676  0.00  0.00     0.000 OA
BRANCH   9  14
ATOM     14  O2  IDS d   2     -38.319  27.867 -27.977  0.00  0.00     0.000 OA
BRANCH  14  15
ATOM     15  S   IDS d   2     -37.174  27.899 -27.112  0.00  0.00     0.000 S 
ATOM     16  O3S IDS d   2     -35.956  27.353 -27.860  0.00  0.00     0.000 OA
ATOM     17  O1S IDS d   2     -36.904  29.341 -26.679  0.00  0.00     0.000 OA
ATOM     18  O2S IDS d   2     -37.441  27.039 -25.876  0.00  0.00     0.000 OA
ENDBRANCH  14  15
ENDBRANCH   9  14
BRANCH  10  19
ATOM     19  O3  IDS d   2     -40.099  29.532 -26.614  0.00  0.00     0.000 OA
ATOM     20  H   IDS d   2     -40.620  30.289 -26.305  0.00  0.00     0.000 HD
ENDBRANCH  10  19
BRANCH  12  21
ATOM     21  C6  IDS d   2     -40.367  32.230 -30.655  0.00  0.00     0.000 C 
ATOM     22  O61 IDS d   2     -41.043  33.050 -29.999  0.00  0.00     0.000 OA
BRANCH  21  23
ATOM     23  O62 IDS d   2     -40.149  32.272 -31.886  0.00  0.00     0.000 OA
ENDBRANCH  21  23
ENDBRANCH  12  21
ENDBRANCH   7   8
ENDBRANCH   6   7
BRANCH   1  25
ATOM     25  O3  SGN d   1     -37.108  26.131 -30.230  0.00  0.00    -0.391 OA
ATOM     26  H   SGN d   1     -38.033  26.110 -29.939  0.00  0.00     0.210 HD
ENDBRANCH   1  25
BRANCH   5  27
ATOM     27  C6  SGN d   1     -36.896  29.958 -33.274  0.00  0.00     0.198 C 
BRANCH  27  28
ATOM     28  O6  SGN d   1     -37.872  30.957 -32.964  0.00  0.00    -0.398 OA
ATOM     29  H   SGN d   1     -38.448  30.637 -32.252  0.00  0.00     0.209 HD
ENDBRANCH  27  28
ENDBRANCH   5  27
BRANCH   4  30
ATOM     30  N   SGN d   1     -37.833  24.432 -32.443  0.00  0.00    -0.189 NA
ATOM     31  H   SGN d   1     -37.195  24.087 -31.727  0.00  0.00     0.143 HD
BRANCH  30  32
ATOM     32  S1  SGN d   1     -39.226  23.587 -32.373  0.00  0.00     0.183 S 
ATOM     33  O2S SGN d   1     -40.126  24.163 -31.277  0.00  0.00    -0.582 OA
ATOM     34  O3S SGN d   1     -39.936  23.672 -33.725  0.00  0.00    -0.582 OA
ATOM     35  O1S SGN d   1     -38.917  22.124 -32.055  0.00  0.00    -0.582 OA
ENDBRANCH  30  32
ENDBRANCH   4  30
BRANCH   2  36
ATOM     36  O1  SGN d   1     -39.095  26.573 -33.917  0.00  0.00    -0.369 OA
ATOM     37  H   SGN d   1     -39.650  25.873 -33.540  0.00  0.00     0.212 HD
ENDBRANCH   2  36
TORSDOF 13
ENDMDL
MODEL 8
REMARK VINA RESULT:      -5.6      2.776      4.844
REMARK  13 active torsions:
REMARK  status: ('A' for Active; 'I' for Inactive)
REMARK    1  A    between atoms: C6_1  and  C5_27 
REMARK    2  A    between atoms: C6_1  and  O6_30 
REMARK    3  A    between atoms: O3_2  and  C3_3 
REMARK    4  A    between atoms: C6_4  and  C5_23 
REMARK    5  A    between atoms: C6_4  and  O62_11 
REMARK    6  A    between atoms: C1_6  and  O1_26 
REMARK    7  A    between atoms: C1_7  and  O1_9 
REMARK    8  A    between atoms: O1_9  and  C4_31 
REMARK    9  A    between atoms: C3_10  and  O3_29 
REMARK   10  A    between atoms: S_13  and  O2_22 
REMARK   11  A    between atoms: N_19  and  C2_25 
REMARK   12  A    between atoms: N_19  and  S1_28 
REMARK   13  A    between atoms: C2_20  and  O2_22 
ROOT
ATOM      1  C1  SGN d   1     -38.498  24.966 -34.384  0.00  0.00     0.000 C 
ATOM      2  C2  SGN d   1     -37.800  24.442 -33.140  0.00  0.00     0.000 C 
ATOM      3  C3  SGN d   1     -37.765  25.537 -32.087  0.00  0.00     0.000 C 
ATOM      4  C4  SGN d   1     -37.124  26.789 -32.664  0.00  0.00     0.000 C 
ATOM      5  C5  SGN d   1     -37.842  27.184 -33.944  0.00  0.00     0.000 C 
ATOM      6  O5  SGN d   1     -37.786  26.105 -34.890  0.00  0.00     0.000 OA
ENDROOT
BRANCH   6   7
ATOM      7  O1  SGN d   1     -37.230  27.853 -31.706  0.00  0.00     0.000 OA
BRANCH   7   8
ATOM      8  C1  IDS d   2     -37.841  29.135 -31.508  0.00  0.00     0.000 C 
ATOM      9  C2  IDS d   2     -39.046  28.970 -30.594  0.00  0.00     0.000 C 
ATOM     10  C3  IDS d   2     -39.434  30.325 -30.028  0.00  0.00     0.000 C 
ATOM     11  C4  IDS d   2     -38.309  30.806 -29.125  0.00  0.00     0.000 C 
ATOM     12  C5  IDS d   2     -37.019  30.102 -29.517  0.00  0.00     0.000 C 
ATOM     13  O5  IDS d   2     -36.909  30.074 -30.946  0.00  0.00     0.000 OA
BRANCH   9  14
ATOM     14  O2  IDS d   2     -40.134  28.389 -31.329  0.00  0.00     0.000 OA
BRANCH  14  15
ATOM     15  S   IDS d   2     -40.862  27.284 -30.774  0.00  0.00     0.000 S 
ATOM     16  O3S IDS d   2     -40.026  26.625 -29.674  0.00  0.00     0.000 OA
ATOM     17  O1S IDS d   2     -42.179  27.789 -30.180  0.00  0.00     0.000 OA
ATOM     18  O2S IDS d   2     -41.158  26.262 -31.872  0.00  0.00     0.000 OA
ENDBRANCH  14  15
ENDBRANCH   9  14
BRANCH  10  19
ATOM     19  O3  IDS d   2     -40.638  30.193 -29.257  0.00  0.00     0.000 OA
ATOM     20  H   IDS d   2     -41.279  30.862 -29.542  0.00  0.00     0.000 HD
ENDBRANCH  10  19
BRANCH  12  21
ATOM     21  C6  IDS d   2     -35.830  30.865 -28.930  0.00  0.00     0.000 C 
ATOM     22  O61 IDS d   2     -35.263  30.354 -27.942  0.00  0.00     0.000 OA
BRANCH  21  23
ATOM     23  O62 IDS d   2     -35.500  31.929 -29.500  0.00  0.00     0.000 OA
ENDBRANCH  21  23
ENDBRANCH  12  21
ENDBRANCH   7   8
ENDBRANCH   6   7
BRANCH   1  25
ATOM     25  O3  SGN d   1     -37.000  25.090 -30.958  0.00  0.00    -0.391 OA
ATOM     26  H   SGN d   1     -37.118  24.160 -30.709  0.00  0.00     0.210 HD
ENDBRANCH   1  25
BRANCH   5  27
ATOM     27  C6  SGN d   1     -37.188  28.416 -34.544  0.00  0.00     0.198 C 
BRANCH  27  28
ATOM     28  O6  SGN d   1     -36.745  28.125 -35.873  0.00  0.00    -0.398 OA
ATOM     29  H   SGN d   1     -36.877  27.182 -36.059  0.00  0.00     0.209 HD
ENDBRANCH  27  28
ENDBRANCH   5  27
BRANCH   4  30
ATOM     30  N   SGN d   1     -38.479  23.249 -32.612  0.00  0.00    -0.189 NA
ATOM     31  H   SGN d   1     -37.671  22.889 -32.104  0.00  0.00     0.143 HD
BRANCH  30  32
ATOM     32  S1  SGN d   1     -39.841  22.624 -31.968  0.00  0.00     0.183 S 
ATOM     33  O2S SGN d   1     -40.135  23.297 -30.625  0.00  0.00    -0.582 OA
ATOM     34  O3S SGN d   1     -41.006  22.855 -32.931  0.00  0.00    -0.582 OA
ATOM     35  O1S SGN d   1     -39.656  21.121 -31.750  0.00  0.00    -0.582 OA
ENDBRANCH  30  32
ENDBRANCH   4  30
BRANCH   2  36
ATOM     36  O1  SGN d   1     -39.843  25.348 -34.056  0.00  0.00    -0.369 OA
ATOM     37  H   SGN d   1     -39.607  24.979 -34.921  0.00  0.00     0.212 HD
ENDBRANCH   2  36
TORSDOF 13
ENDMDL
MODEL 9
REMARK VINA RESULT:      -5.6      2.928      6.757
REMARK  13 active torsions:
REMARK  status: ('A' for Active; 'I' for Inactive)
REMARK    1  A    between atoms: C6_1  and  C5_27 
REMARK    2  A    between atoms: C6_1  and  O6_30 
REMARK    3  A    between atoms: O3_2  and  C3_3 
REMARK    4  A    between atoms: C6_4  and  C5_23 
REMARK    5  A    between atoms: C6_4  and  O62_11 
REMARK    6  A    between atoms: C1_6  and  O1_26 
REMARK    7  A    between atoms: C1_7  and  O1_9 
REMARK    8  A    between atoms: O1_9  and  C4_31 
REMARK    9  A    between atoms: C3_10  and  O3_29 
REMARK   10  A    between atoms: S_13  and  O2_22 
REMARK   11  A    between atoms: N_19  and  C2_25 
REMARK   12  A    between atoms: N_19  and  S1_28 
REMARK   13  A    between atoms: C2_20  and  O2_22 
ROOT
ATOM      1  C1  SGN d   1     -37.725  29.444 -31.342  0.00  0.00     0.000 C 
ATOM      2  C2  SGN d   1     -38.633  29.856 -32.488  0.00  0.00     0.000 C 
ATOM      3  C3  SGN d   1     -39.616  28.733 -32.777  0.00  0.00     0.000 C 
ATOM      4  C4  SGN d   1     -38.861  27.439 -33.033  0.00  0.00     0.000 C 
ATOM      5  C5  SGN d   1     -37.925  27.158 -31.868  0.00  0.00     0.000 C 
ATOM      6  O5  SGN d   1     -37.010  28.252 -31.701  0.00  0.00     0.000 OA
ENDROOT
BRANCH   6   7
ATOM      7  O1  SGN d   1     -39.804  26.364 -33.161  0.00  0.00     0.000 OA
BRANCH   7   8
ATOM      8  C1  IDS d   2     -39.642  25.793 -34.466  0.00  0.00     0.000 C 
ATOM      9  C2  IDS d   2     -40.360  24.453 -34.510  0.00  0.00     0.000 C 
ATOM     10  C3  IDS d   2     -40.576  24.048 -35.959  0.00  0.00     0.000 C 
ATOM     11  C4  IDS d   2     -41.539  25.039 -36.593  0.00  0.00     0.000 C 
ATOM     12  C5  IDS d   2     -41.511  26.338 -35.803  0.00  0.00     0.000 C 
ATOM     13  O5  IDS d   2     -40.153  26.670 -35.484  0.00  0.00     0.000 OA
BRANCH   9  14
ATOM     14  O2  IDS d   2     -39.586  23.467 -33.811  0.00  0.00     0.000 OA
BRANCH  14  15
ATOM     15  S   IDS d   2     -40.218  22.617 -32.842  0.00  0.00     0.000 S 
ATOM     16  O3S IDS d   2     -40.724  21.349 -33.533  0.00  0.00     0.000 OA
ATOM     17  O1S IDS d   2     -39.205  22.240 -31.760  0.00  0.00     0.000 OA
ATOM     18  O2S IDS d   2     -41.395  23.355 -32.203  0.00  0.00     0.000 OA
ENDBRANCH  14  15
ENDBRANCH   9  14
BRANCH  10  19
ATOM     19  O3  IDS d   2     -41.149  22.732 -36.006  0.00  0.00     0.000 OA
ATOM     20  H   IDS d   2     -41.063  22.375 -36.903  0.00  0.00     0.000 HD
ENDBRANCH  10  19
BRANCH  12  21
ATOM     21  C6  IDS d   2     -42.123  27.456 -36.649  0.00  0.00     0.000 C 
ATOM     22  O61 IDS d   2     -42.271  27.225 -37.868  0.00  0.00     0.000 OA
BRANCH  21  23
ATOM     23  O62 IDS d   2     -42.452  28.506 -36.053  0.00  0.00     0.000 OA
ENDBRANCH  21  23
ENDBRANCH  12  21
ENDBRANCH   7   8
ENDBRANCH   6   7
BRANCH   1  25
ATOM     25  O3  SGN d   1     -40.393  29.065 -33.937  0.00  0.00    -0.391 OA
ATOM     26  H   SGN d   1     -40.239  29.886 -34.431  0.00  0.00     0.210 HD
ENDBRANCH   1  25
BRANCH   5  27
ATOM     27  C6  SGN d   1     -37.143  25.883 -32.130  0.00  0.00     0.198 C 
BRANCH  27  28
ATOM     28  O6  SGN d   1     -37.843  24.767 -31.570  0.00  0.00    -0.398 OA
ATOM     29  H   SGN d   1     -38.692  25.067 -31.208  0.00  0.00     0.209 HD
ENDBRANCH  27  28
ENDBRANCH   5  27
BRANCH   4  30
ATOM     30  N   SGN d   1     -39.357  31.098 -32.174  0.00  0.00    -0.189 NA
ATOM     31  H   SGN d   1     -38.758  31.414 -32.937  0.00  0.00     0.143 HD
BRANCH  30  32
ATOM     32  S1  SGN d   1     -40.699  32.023 -32.127  0.00  0.00     0.183 S 
ATOM     33  O2S SGN d   1     -41.617  31.546 -30.999  0.00  0.00    -0.582 OA
ATOM     34  O3S SGN d   1     -40.299  33.480 -31.890  0.00  0.00    -0.582 OA
ATOM     35  O1S SGN d   1     -41.438  31.913 -33.462  0.00  0.00    -0.582 OA
ENDBRANCH  30  32
ENDBRANCH   4  30
BRANCH   2  36
ATOM     36  O1  SGN d   1     -38.516  29.195 -30.169  0.00  0.00    -0.369 OA
ATOM     37  H   SGN d   1     -37.701  28.705 -30.361  0.00  0.00     0.212 HD
ENDBRANCH   2  36
TORSDOF 13
ENDMDL
MODEL 10
REMARK VINA RESULT:      -5.6      4.017      6.457
REMARK  13 active torsions:
REMARK  status: ('A' for Active; 'I' for Inactive)
REMARK    1  A    between atoms: C6_1  and  C5_27 
REMARK    2  A    between atoms: C6_1  and  O6_30 
REMARK    3  A    between atoms: O3_2  and  C3_3 
REMARK    4  A    between atoms: C6_4  and  C5_23 
REMARK    5  A    between atoms: C6_4  and  O62_11 
REMARK    6  A    between atoms: C1_6  and  O1_26 
REMARK    7  A    between atoms: C1_7  and  O1_9 
REMARK    8  A    between atoms: O1_9  and  C4_31 
REMARK    9  A    between atoms: C3_10  and  O3_29 
REMARK   10  A    between atoms: S_13  and  O2_22 
REMARK   11  A    between atoms: N_19  and  C2_25 
REMARK   12  A    between atoms: N_19  and  S1_28 
REMARK   13  A    between atoms: C2_20  and  O2_22 
ROOT
ATOM      1  C1  SGN d   1     -37.433  26.336 -33.840  0.00  0.00     0.000 C 
ATOM      2  C2  SGN d   1     -37.025  25.491 -32.644  0.00  0.00     0.000 C 
ATOM      3  C3  SGN d   1     -37.256  26.286 -31.369  0.00  0.00     0.000 C 
ATOM      4  C4  SGN d   1     -36.529  27.618 -31.451  0.00  0.00     0.000 C 
ATOM      5  C5  SGN d   1     -36.946  28.347 -32.718  0.00  0.00     0.000 C 
ATOM      6  O5  SGN d   1     -36.651  27.539 -33.868  0.00  0.00     0.000 OA
ENDROOT
BRANCH   6   7
ATOM      7  O1  SGN d   1     -36.875  28.411 -30.305  0.00  0.00     0.000 OA
BRANCH   7   8
ATOM      8  C1  IDS d   2     -35.815  28.006 -29.428  0.00  0.00     0.000 C 
ATOM      9  C2  IDS d   2     -35.030  29.237 -29.002  0.00  0.00     0.000 C 
ATOM     10  C3  IDS d   2     -34.210  28.905 -27.768  0.00  0.00     0.000 C 
ATOM     11  C4  IDS d   2     -35.165  28.623 -26.620  0.00  0.00     0.000 C 
ATOM     12  C5  IDS d   2     -36.520  28.223 -27.185  0.00  0.00     0.000 C 
ATOM     13  O5  IDS d   2     -36.327  27.314 -28.278  0.00  0.00     0.000 OA
BRANCH   9  14
ATOM     14  O2  IDS d   2     -34.186  29.669 -30.080  0.00  0.00     0.000 OA
BRANCH  14  15
ATOM     15  S   IDS d   2     -33.903  31.066 -30.252  0.00  0.00     0.000 S 
ATOM     16  O3S IDS d   2     -35.007  31.893 -29.588  0.00  0.00     0.000 OA
ATOM     17  O1S IDS d   2     -32.558  31.396 -29.603  0.00  0.00     0.000 OA
ATOM     18  O2S IDS d   2     -33.844  31.397 -31.743  0.00  0.00     0.000 OA
ENDBRANCH  14  15
ENDBRANCH   9  14
BRANCH  10  19
ATOM     19  O3  IDS d   2     -33.380  30.028 -27.430  0.00  0.00     0.000 OA
ATOM     20  H   IDS d   2     -33.896  30.846 -27.506  0.00  0.00     0.000 HD
ENDBRANCH  10  19
BRANCH  12  21
ATOM     21  C6  IDS d   2     -37.340  27.537 -26.091  0.00  0.00     0.000 C 
ATOM     22  O61 IDS d   2     -38.524  27.253 -26.368  0.00  0.00     0.000 OA
BRANCH  21  23
ATOM     23  O62 IDS d   2     -36.756  27.289 -25.013  0.00  0.00     0.000 OA
ENDBRANCH  21  23
ENDBRANCH  12  21
ENDBRANCH   7   8
ENDBRANCH   6   7
BRANCH   1  25
ATOM     25  O3  SGN d   1     -36.758  25.542 -30.247  0.00  0.00    -0.391 OA
ATOM     26  H   SGN d   1     -35.800  25.403 -30.302  0.00  0.00     0.210 HD
ENDBRANCH   1  25
BRANCH   5  27
ATOM     27  C6  SGN d   1     -36.201  29.666 -32.824  0.00  0.00     0.198 C 
BRANCH  27  28
ATOM     28  O6  SGN d   1     -36.737  30.598 -31.880  0.00  0.00    -0.398 OA
ATOM     29  H   SGN d   1     -36.430  31.492 -32.099  0.00  0.00     0.209 HD
ENDBRANCH  27  28
ENDBRANCH   5  27
BRANCH   4  30
ATOM     30  N   SGN d   1     -37.778  24.229 -32.602  0.00  0.00    -0.189 NA
ATOM     31  H   SGN d   1     -37.100  23.725 -32.031  0.00  0.00     0.143 HD
BRANCH  30  32
ATOM     32  S1  SGN d   1     -39.237  23.512 -32.462  0.00  0.00     0.183 S 
ATOM     33  O2S SGN d   1     -39.056  22.039 -32.087  0.00  0.00    -0.582 OA
ATOM     34  O3S SGN d   1     -40.049  24.228 -31.382  0.00  0.00    -0.582 OA
ATOM     35  O1S SGN d   1     -39.978  23.606 -33.797  0.00  0.00    -0.582 OA
ENDBRANCH  30  32
ENDBRANCH   4  30
BRANCH   2  36
ATOM     36  O1  SGN d   1     -38.826  26.670 -33.739  0.00  0.00    -0.369 OA
ATOM     37  H   SGN d   1     -38.384  26.533 -34.591  0.00  0.00     0.212 HD
ENDBRANCH   2  36
TORSDOF 13
ENDMDL
MODEL 11
REMARK VINA RESULT:      -5.5      2.465      6.046
REMARK  13 active torsions:
REMARK  status: ('A' for Active; 'I' for Inactive)
REMARK    1  A    between atoms: C6_1  and  C5_27 
REMARK    2  A    between atoms: C6_1  and  O6_30 
REMARK    3  A    between atoms: O3_2  and  C3_3 
REMARK    4  A    between atoms: C6_4  and  C5_23 
REMARK    5  A    between atoms: C6_4  and  O62_11 
REMARK    6  A    between atoms: C1_6  and  O1_26 
REMARK    7  A    between atoms: C1_7  and  O1_9 
REMARK    8  A    between atoms: O1_9  and  C4_31 
REMARK    9  A    between atoms: C3_10  and  O3_29 
REMARK   10  A    between atoms: S_13  and  O2_22 
REMARK   11  A    between atoms: N_19  and  C2_25 
REMARK   12  A    between atoms: N_19  and  S1_28 
REMARK   13  A    between atoms: C2_20  and  O2_22 
ROOT
ATOM      1  C1  SGN d   1     -36.418  28.132 -32.868  0.00  0.00     0.000 C 
ATOM      2  C2  SGN d   1     -37.077  27.929 -31.514  0.00  0.00     0.000 C 
ATOM      3  C3  SGN d   1     -38.207  26.922 -31.654  0.00  0.00     0.000 C 
ATOM      4  C4  SGN d   1     -39.171  27.373 -32.739  0.00  0.00     0.000 C 
ATOM      5  C5  SGN d   1     -38.403  27.625 -34.027  0.00  0.00     0.000 C 
ATOM      6  O5  SGN d   1     -37.389  28.618 -33.807  0.00  0.00     0.000 OA
ENDROOT
BRANCH   6   7
ATOM      7  O1  SGN d   1     -40.148  26.344 -32.956  0.00  0.00     0.000 OA
BRANCH   7   8
ATOM      8  C1  IDS d   2     -39.905  24.930 -32.973  0.00  0.00     0.000 C 
ATOM      9  C2  IDS d   2     -40.985  24.235 -32.158  0.00  0.00     0.000 C 
ATOM     10  C3  IDS d   2     -41.010  22.759 -32.515  0.00  0.00     0.000 C 
ATOM     11  C4  IDS d   2     -41.453  22.625 -33.963  0.00  0.00     0.000 C 
ATOM     12  C5  IDS d   2     -41.182  23.932 -34.691  0.00  0.00     0.000 C 
ATOM     13  O5  IDS d   2     -39.886  24.422 -34.318  0.00  0.00     0.000 OA
BRANCH   9  14
ATOM     14  O2  IDS d   2     -40.728  24.421 -30.758  0.00  0.00     0.000 OA
BRANCH  14  15
ATOM     15  S   IDS d   2     -41.750  24.963 -29.908  0.00  0.00     0.000 S 
ATOM     16  O3S IDS d   2     -41.100  25.703 -28.738  0.00  0.00     0.000 OA
ATOM     17  O1S IDS d   2     -42.615  25.937 -30.711  0.00  0.00     0.000 OA
ATOM     18  O2S IDS d   2     -42.625  23.828 -29.373  0.00  0.00     0.000 OA
ENDBRANCH  14  15
ENDBRANCH   9  14
BRANCH  10  19
ATOM     19  O3  IDS d   2     -41.947  22.078 -31.666  0.00  0.00     0.000 OA
ATOM     20  H   IDS d   2     -41.481  21.713 -30.898  0.00  0.00     0.000 HD
ENDBRANCH  10  19
BRANCH  12  21
ATOM     21  C6  IDS d   2     -41.216  23.685 -36.201  0.00  0.00     0.000 C 
ATOM     22  O61 IDS d   2     -41.433  22.514 -36.576  0.00  0.00     0.000 OA
BRANCH  21  23
ATOM     23  O62 IDS d   2     -41.050  24.677 -36.944  0.00  0.00     0.000 OA
ENDBRANCH  21  23
ENDBRANCH  12  21
ENDBRANCH   7   8
ENDBRANCH   6   7
BRANCH   1  25
ATOM     25  O3  SGN d   1     -38.912  26.819 -30.407  0.00  0.00    -0.391 OA
ATOM     26  H   SGN d   1     -39.369  26.184 -30.981  0.00  0.00     0.210 HD
ENDBRANCH   1  25
BRANCH   5  27
ATOM     27  C6  SGN d   1     -39.354  28.107 -35.109  0.00  0.00     0.198 C 
BRANCH  27  28
ATOM     28  O6  SGN d   1     -39.902  26.982 -35.802  0.00  0.00    -0.398 OA
ATOM     29  H   SGN d   1     -39.741  26.176 -35.288  0.00  0.00     0.209 HD
ENDBRANCH  27  28
ENDBRANCH   5  27
BRANCH   4  30
ATOM     30  N   SGN d   1     -36.105  27.467 -30.512  0.00  0.00    -0.189 NA
ATOM     31  H   SGN d   1     -35.603  28.098 -31.137  0.00  0.00     0.143 HD
BRANCH  30  32
ATOM     32  S1  SGN d   1     -35.904  27.966 -28.972  0.00  0.00     0.183 S 
ATOM     33  O2S SGN d   1     -35.935  29.495 -28.915  0.00  0.00    -0.582 OA
ATOM     34  O3S SGN d   1     -37.026  27.391 -28.106  0.00  0.00    -0.582 OA
ATOM     35  O1S SGN d   1     -34.556  27.468 -28.449  0.00  0.00    -0.582 OA
ENDBRANCH  30  32
ENDBRANCH   4  30
BRANCH   2  36
ATOM     36  O1  SGN d   1     -35.882  26.884 -33.333  0.00  0.00    -0.369 OA
ATOM     37  H   SGN d   1     -36.511  26.145 -33.308  0.00  0.00     0.212 HD
ENDBRANCH   2  36
TORSDOF 13
ENDMDL
MODEL 12
REMARK VINA RESULT:      -5.5      2.630      6.232
REMARK  13 active torsions:
REMARK  status: ('A' for Active; 'I' for Inactive)
REMARK    1  A    between atoms: C6_1  and  C5_27 
REMARK    2  A    between atoms: C6_1  and  O6_30 
REMARK    3  A    between atoms: O3_2  and  C3_3 
REMARK    4  A    between atoms: C6_4  and  C5_23 
REMARK    5  A    between atoms: C6_4  and  O62_11 
REMARK    6  A    between atoms: C1_6  and  O1_26 
REMARK    7  A    between atoms: C1_7  and  O1_9 
REMARK    8  A    between atoms: O1_9  and  C4_31 
REMARK    9  A    between atoms: C3_10  and  O3_29 
REMARK   10  A    between atoms: S_13  and  O2_22 
REMARK   11  A    between atoms: N_19  and  C2_25 
REMARK   12  A    between atoms: N_19  and  S1_28 
REMARK   13  A    between atoms: C2_20  and  O2_22 
ROOT
ATOM      1  C1  SGN d   1     -37.243  29.754 -32.354  0.00  0.00     0.000 C 
ATOM      2  C2  SGN d   1     -37.219  28.524 -31.463  0.00  0.00     0.000 C 
ATOM      3  C3  SGN d   1     -38.000  27.405 -32.133  0.00  0.00     0.000 C 
ATOM      4  C4  SGN d   1     -39.402  27.885 -32.471  0.00  0.00     0.000 C 
ATOM      5  C5  SGN d   1     -39.318  29.161 -33.294  0.00  0.00     0.000 C 
ATOM      6  O5  SGN d   1     -38.601  30.169 -32.563  0.00  0.00     0.000 OA
ENDROOT
BRANCH   6   7
ATOM      7  O1  SGN d   1     -40.075  26.869 -33.229  0.00  0.00     0.000 OA
BRANCH   7   8
ATOM      8  C1  IDS d   2     -39.764  26.212 -34.466  0.00  0.00     0.000 C 
ATOM      9  C2  IDS d   2     -40.277  24.782 -34.406  0.00  0.00     0.000 C 
ATOM     10  C3  IDS d   2     -40.356  24.219 -35.815  0.00  0.00     0.000 C 
ATOM     11  C4  IDS d   2     -41.416  24.994 -36.581  0.00  0.00     0.000 C 
ATOM     12  C5  IDS d   2     -41.619  26.349 -35.920  0.00  0.00     0.000 C 
ATOM     13  O5  IDS d   2     -40.341  26.907 -35.583  0.00  0.00     0.000 OA
BRANCH   9  14
ATOM     14  O2  IDS d   2     -39.406  23.990 -33.585  0.00  0.00     0.000 OA
BRANCH  14  15
ATOM     15  S   IDS d   2     -39.933  23.301 -32.441  0.00  0.00     0.000 S 
ATOM     16  O3S IDS d   2     -41.320  22.747 -32.775  0.00  0.00     0.000 OA
ATOM     17  O1S IDS d   2     -39.000  22.149 -32.066  0.00  0.00     0.000 OA
ATOM     18  O2S IDS d   2     -40.042  24.272 -31.264  0.00  0.00     0.000 OA
ENDBRANCH  14  15
ENDBRANCH   9  14
BRANCH  10  19
ATOM     19  O3  IDS d   2     -40.729  22.834 -35.756  0.00  0.00     0.000 OA
ATOM     20  H   IDS d   2     -40.827  22.487 -36.656  0.00  0.00     0.000 HD
ENDBRANCH  10  19
BRANCH  12  21
ATOM     21  C6  IDS d   2     -42.340  27.282 -36.895  0.00  0.00     0.000 C 
ATOM     22  O61 IDS d   2     -42.570  28.443 -36.499  0.00  0.00     0.000 OA
BRANCH  21  23
ATOM     23  O62 IDS d   2     -42.622  26.819 -38.023  0.00  0.00     0.000 OA
ENDBRANCH  21  23
ENDBRANCH  12  21
ENDBRANCH   7   8
ENDBRANCH   6   7
BRANCH   1  25
ATOM     25  O3  SGN d   1     -38.086  26.283 -31.243  0.00  0.00    -0.391 OA
ATOM     26  H   SGN d   1     -37.787  25.798 -32.028  0.00  0.00     0.210 HD
ENDBRANCH   1  25
BRANCH   5  27
ATOM     27  C6  SGN d   1     -40.715  29.665 -33.610  0.00  0.00     0.198 C 
BRANCH  27  28
ATOM     28  O6  SGN d   1     -41.659  29.048 -32.729  0.00  0.00    -0.398 OA
ATOM     29  H   SGN d   1     -42.513  29.502 -32.802  0.00  0.00     0.209 HD
ENDBRANCH  27  28
ENDBRANCH   5  27
BRANCH   4  30
ATOM     30  N   SGN d   1     -35.840  28.090 -31.192  0.00  0.00    -0.189 NA
ATOM     31  H   SGN d   1     -35.581  28.809 -31.867  0.00  0.00     0.143 HD
BRANCH  30  32
ATOM     32  S1  SGN d   1     -35.240  28.487 -29.728  0.00  0.00     0.183 S 
ATOM     33  O2S SGN d   1     -35.924  29.756 -29.215  0.00  0.00    -0.582 OA
ATOM     34  O3S SGN d   1     -35.485  27.334 -28.753  0.00  0.00    -0.582 OA
ATOM     35  O1S SGN d   1     -33.735  28.737 -29.848  0.00  0.00    -0.582 OA
ENDBRANCH  30  32
ENDBRANCH   4  30
BRANCH   2  36
ATOM     36  O1  SGN d   1     -36.634  29.445 -33.617  0.00  0.00    -0.369 OA
ATOM     37  H   SGN d   1     -37.511  29.197 -33.949  0.00  0.00     0.212 HD
ENDBRANCH   2  36
TORSDOF 13
ENDMDL
MODEL 13
REMARK VINA RESULT:      -5.5      2.439      3.680
REMARK  13 active torsions:
REMARK  status: ('A' for Active; 'I' for Inactive)
REMARK    1  A    between atoms: C6_1  and  C5_27 
REMARK    2  A    between atoms: C6_1  and  O6_30 
REMARK    3  A    between atoms: O3_2  and  C3_3 
REMARK    4  A    between atoms: C6_4  and  C5_23 
REMARK    5  A    between atoms: C6_4  and  O62_11 
REMARK    6  A    between atoms: C1_6  and  O1_26 
REMARK    7  A    between atoms: C1_7  and  O1_9 
REMARK    8  A    between atoms: O1_9  and  C4_31 
REMARK    9  A    between atoms: C3_10  and  O3_29 
REMARK   10  A    between atoms: S_13  and  O2_22 
REMARK   11  A    between atoms: N_19  and  C2_25 
REMARK   12  A    between atoms: N_19  and  S1_28 
REMARK   13  A    between atoms: C2_20  and  O2_22 
ROOT
ATOM      1  C1  SGN d   1     -38.453  24.956 -34.286  0.00  0.00     0.000 C 
ATOM      2  C2  SGN d   1     -37.788  24.437 -33.021  0.00  0.00     0.000 C 
ATOM      3  C3  SGN d   1     -37.752  25.548 -31.984  0.00  0.00     0.000 C 
ATOM      4  C4  SGN d   1     -37.076  26.778 -32.567  0.00  0.00     0.000 C 
ATOM      5  C5  SGN d   1     -37.763  27.167 -33.867  0.00  0.00     0.000 C 
ATOM      6  O5  SGN d   1     -37.709  26.073 -34.795  0.00  0.00     0.000 OA
ENDROOT
BRANCH   6   7
ATOM      7  O1  SGN d   1     -37.179  27.859 -31.628  0.00  0.00     0.000 OA
BRANCH   7   8
ATOM      8  C1  IDS d   2     -38.325  28.305 -30.889  0.00  0.00     0.000 C 
ATOM      9  C2  IDS d   2     -38.109  29.752 -30.473  0.00  0.00     0.000 C 
ATOM     10  C3  IDS d   2     -39.445  30.367 -30.089  0.00  0.00     0.000 C 
ATOM     11  C4  IDS d   2     -40.315  30.433 -31.333  0.00  0.00     0.000 C 
ATOM     12  C5  IDS d   2     -39.822  29.409 -32.343  0.00  0.00     0.000 C 
ATOM     13  O5  IDS d   2     -39.527  28.180 -31.667  0.00  0.00     0.000 OA
BRANCH   9  14
ATOM     14  O2  IDS d   2     -37.184  29.807 -29.377  0.00  0.00     0.000 OA
BRANCH  14  15
ATOM     15  S   IDS d   2     -35.996  30.605 -29.483  0.00  0.00     0.000 S 
ATOM     16  O3S IDS d   2     -36.261  31.993 -28.898  0.00  0.00     0.000 OA
ATOM     17  O1S IDS d   2     -34.861  29.933 -28.708  0.00  0.00     0.000 OA
ATOM     18  O2S IDS d   2     -35.598  30.739 -30.954  0.00  0.00     0.000 OA
ENDBRANCH  14  15
ENDBRANCH   9  14
BRANCH  10  19
ATOM     19  O3  IDS d   2     -39.232  31.695 -29.586  0.00  0.00     0.000 OA
ATOM     20  H   IDS d   2     -39.913  32.287 -29.939  0.00  0.00     0.000 HD
ENDBRANCH  10  19
BRANCH  12  21
ATOM     21  C6  IDS d   2     -40.912  29.166 -33.389  0.00  0.00     0.000 C 
ATOM     22  O61 IDS d   2     -41.524  30.169 -33.810  0.00  0.00     0.000 OA
BRANCH  21  23
ATOM     23  O62 IDS d   2     -41.090  27.984 -33.760  0.00  0.00     0.000 OA
ENDBRANCH  21  23
ENDBRANCH  12  21
ENDBRANCH   7   8
ENDBRANCH   6   7
BRANCH   1  25
ATOM     25  O3  SGN d   1     -37.016  25.104 -30.834  0.00  0.00    -0.391 OA
ATOM     26  H   SGN d   1     -37.835  25.256 -30.338  0.00  0.00     0.210 HD
ENDBRANCH   1  25
BRANCH   5  27
ATOM     27  C6  SGN d   1     -37.074  28.377 -34.473  0.00  0.00     0.198 C 
BRANCH  27  28
ATOM     28  O6  SGN d   1     -36.915  28.184 -35.881  0.00  0.00    -0.398 OA
ATOM     29  H   SGN d   1     -37.381  27.377 -36.151  0.00  0.00     0.209 HD
ENDBRANCH  27  28
ENDBRANCH   5  27
BRANCH   4  30
ATOM     30  N   SGN d   1     -38.499  23.265 -32.488  0.00  0.00    -0.189 NA
ATOM     31  H   SGN d   1     -37.749  22.917 -31.891  0.00  0.00     0.143 HD
BRANCH  30  32
ATOM     32  S1  SGN d   1     -39.927  22.691 -31.948  0.00  0.00     0.183 S 
ATOM     33  O2S SGN d   1     -39.791  21.206 -31.603  0.00  0.00    -0.582 OA
ATOM     34  O3S SGN d   1     -40.348  23.477 -30.705  0.00  0.00    -0.582 OA
ATOM     35  O1S SGN d   1     -40.987  22.862 -33.037  0.00  0.00    -0.582 OA
ENDBRANCH  30  32
ENDBRANCH   4  30
BRANCH   2  36
ATOM     36  O1  SGN d   1     -39.796  25.367 -33.988  0.00  0.00    -0.369 OA
ATOM     37  H   SGN d   1     -40.191  25.407 -33.103  0.00  0.00     0.212 HD
ENDBRANCH   2  36
TORSDOF 13
ENDMDL
MODEL 14
REMARK VINA RESULT:      -5.5      3.715      7.335
REMARK  13 active torsions:
REMARK  status: ('A' for Active; 'I' for Inactive)
REMARK    1  A    between atoms: C6_1  and  C5_27 
REMARK    2  A    between atoms: C6_1  and  O6_30 
REMARK    3  A    between atoms: O3_2  and  C3_3 
REMARK    4  A    between atoms: C6_4  and  C5_23 
REMARK    5  A    between atoms: C6_4  and  O62_11 
REMARK    6  A    between atoms: C1_6  and  O1_26 
REMARK    7  A    between atoms: C1_7  and  O1_9 
REMARK    8  A    between atoms: O1_9  and  C4_31 
REMARK    9  A    between atoms: C3_10  and  O3_29 
REMARK   10  A    between atoms: S_13  and  O2_22 
REMARK   11  A    between atoms: N_19  and  C2_25 
REMARK   12  A    between atoms: N_19  and  S1_28 
REMARK   13  A    between atoms: C2_20  and  O2_22 
ROOT
ATOM      1  C1  SGN d   1     -37.430  30.289 -28.609  0.00  0.00     0.000 C 
ATOM      2  C2  SGN d   1     -36.479  29.251 -28.036  0.00  0.00     0.000 C 
ATOM      3  C3  SGN d   1     -36.393  28.070 -28.989  0.00  0.00     0.000 C 
ATOM      4  C4  SGN d   1     -37.786  27.531 -29.270  0.00  0.00     0.000 C 
ATOM      5  C5  SGN d   1     -38.678  28.660 -29.761  0.00  0.00     0.000 C 
ATOM      6  O5  SGN d   1     -38.731  29.706 -28.779  0.00  0.00     0.000 OA
ENDROOT
BRANCH   6   7
ATOM      7  O1  SGN d   1     -37.700  26.513 -30.279  0.00  0.00     0.000 OA
BRANCH   7   8
ATOM      8  C1  IDS d   2     -37.066  26.529 -31.565  0.00  0.00     0.000 C 
ATOM      9  C2  IDS d   2     -38.004  25.901 -32.584  0.00  0.00     0.000 C 
ATOM     10  C3  IDS d   2     -37.560  26.295 -33.983  0.00  0.00     0.000 C 
ATOM     11  C4  IDS d   2     -37.747  27.795 -34.139  0.00  0.00     0.000 C 
ATOM     12  C5  IDS d   2     -37.761  28.442 -32.763  0.00  0.00     0.000 C 
ATOM     13  O5  IDS d   2     -36.721  27.868 -31.958  0.00  0.00     0.000 OA
BRANCH   9  14
ATOM     14  O2  IDS d   2     -38.003  24.474 -32.426  0.00  0.00     0.000 OA
BRANCH  14  15
ATOM     15  S   IDS d   2     -39.245  23.770 -32.281  0.00  0.00     0.000 S 
ATOM     16  O3S IDS d   2     -38.962  22.305 -31.942  0.00  0.00     0.000 OA
ATOM     17  O1S IDS d   2     -40.063  24.406 -31.155  0.00  0.00     0.000 OA
ATOM     18  O2S IDS d   2     -40.035  23.848 -33.589  0.00  0.00     0.000 OA
ENDBRANCH  14  15
ENDBRANCH   9  14
BRANCH  10  19
ATOM     19  O3  IDS d   2     -38.372  25.612 -34.951  0.00  0.00     0.000 OA
ATOM     20  H   IDS d   2     -37.811  25.040 -35.497  0.00  0.00     0.000 HD
ENDBRANCH  10  19
BRANCH  12  21
ATOM     21  C6  IDS d   2     -37.518  29.946 -32.910  0.00  0.00     0.000 C 
ATOM     22  O61 IDS d   2     -38.462  30.703 -32.601  0.00  0.00     0.000 OA
BRANCH  21  23
ATOM     23  O62 IDS d   2     -36.385  30.303 -33.304  0.00  0.00     0.000 OA
ENDBRANCH  21  23
ENDBRANCH  12  21
ENDBRANCH   7   8
ENDBRANCH   6   7
BRANCH   1  25
ATOM     25  O3  SGN d   1     -35.595  27.035 -28.396  0.00  0.00    -0.391 OA
ATOM     26  H   SGN d   1     -34.959  27.268 -27.702  0.00  0.00     0.210 HD
ENDBRANCH   1  25
BRANCH   5  27
ATOM     27  C6  SGN d   1     -40.082  28.136 -30.014  0.00  0.00     0.198 C 
BRANCH  27  28
ATOM     28  O6  SGN d   1     -40.234  26.855 -29.396  0.00  0.00    -0.398 OA
ATOM     29  H   SGN d   1     -40.910  26.345 -29.871  0.00  0.00     0.209 HD
ENDBRANCH  27  28
ENDBRANCH   5  27
BRANCH   4  30
ATOM     30  N   SGN d   1     -35.142  29.822 -27.810  0.00  0.00    -0.189 NA
ATOM     31  H   SGN d   1     -34.831  29.122 -27.137  0.00  0.00     0.143 HD
BRANCH  30  32
ATOM     32  S1  SGN d   1     -33.840  30.534 -28.486  0.00  0.00     0.183 S 
ATOM     33  O2S SGN d   1     -34.246  31.871 -29.110  0.00  0.00    -0.582 OA
ATOM     34  O3S SGN d   1     -32.777  30.766 -27.410  0.00  0.00    -0.582 OA
ATOM     35  O1S SGN d   1     -33.268  29.621 -29.572  0.00  0.00    -0.582 OA
ENDBRANCH  30  32
ENDBRANCH   4  30
BRANCH   2  36
ATOM     36  O1  SGN d   1     -36.937  30.742 -29.879  0.00  0.00    -0.369 OA
ATOM     37  H   SGN d   1     -37.712  31.077 -29.403  0.00  0.00     0.212 HD
ENDBRANCH   2  36
TORSDOF 13
ENDMDL
MODEL 15
REMARK VINA RESULT:      -5.4      2.675      5.403
REMARK  13 active torsions:
REMARK  status: ('A' for Active; 'I' for Inactive)
REMARK    1  A    between atoms: C6_1  and  C5_27 
REMARK    2  A    between atoms: C6_1  and  O6_30 
REMARK    3  A    between atoms: O3_2  and  C3_3 
REMARK    4  A    between atoms: C6_4  and  C5_23 
REMARK    5  A    between atoms: C6_4  and  O62_11 
REMARK    6  A    between atoms: C1_6  and  O1_26 
REMARK    7  A    between atoms: C1_7  and  O1_9 
REMARK    8  A    between atoms: O1_9  and  C4_31 
REMARK    9  A    between atoms: C3_10  and  O3_29 
REMARK   10  A    between atoms: S_13  and  O2_22 
REMARK   11  A    between atoms: N_19  and  C2_25 
REMARK   12  A    between atoms: N_19  and  S1_28 
REMARK   13  A    between atoms: C2_20  and  O2_22 
ROOT
ATOM      1  C1  SGN d   1     -36.635  27.344 -30.373  0.00  0.00     0.000 C 
ATOM      2  C2  SGN d   1     -38.026  27.857 -30.036  0.00  0.00     0.000 C 
ATOM      3  C3  SGN d   1     -39.029  27.260 -31.010  0.00  0.00     0.000 C 
ATOM      4  C4  SGN d   1     -38.600  27.554 -32.438  0.00  0.00     0.000 C 
ATOM      5  C5  SGN d   1     -37.173  27.075 -32.649  0.00  0.00     0.000 C 
ATOM      6  O5  SGN d   1     -36.296  27.724 -31.715  0.00  0.00     0.000 OA
ENDROOT
BRANCH   6   7
ATOM      7  O1  SGN d   1     -39.477  26.863 -33.341  0.00  0.00     0.000 OA
BRANCH   7   8
ATOM      8  C1  IDS d   2     -39.444  26.141 -34.580  0.00  0.00     0.000 C 
ATOM      9  C2  IDS d   2     -40.072  24.772 -34.369  0.00  0.00     0.000 C 
ATOM     10  C3  IDS d   2     -40.442  24.179 -35.718  0.00  0.00     0.000 C 
ATOM     11  C4  IDS d   2     -41.540  25.032 -36.331  0.00  0.00     0.000 C 
ATOM     12  C5  IDS d   2     -41.499  26.420 -35.710  0.00  0.00     0.000 C 
ATOM     13  O5  IDS d   2     -40.136  26.857 -35.617  0.00  0.00     0.000 OA
BRANCH   9  14
ATOM     14  O2  IDS d   2     -39.152  23.922 -33.668  0.00  0.00     0.000 OA
BRANCH  14  15
ATOM     15  S   IDS d   2     -39.444  23.506 -32.326  0.00  0.00     0.000 S 
ATOM     16  O3S IDS d   2     -39.527  21.979 -32.274  0.00  0.00     0.000 OA
ATOM     17  O1S IDS d   2     -38.333  23.989 -31.391  0.00  0.00     0.000 OA
ATOM     18  O2S IDS d   2     -40.778  24.106 -31.882  0.00  0.00     0.000 OA
ENDBRANCH  14  15
ENDBRANCH   9  14
BRANCH  10  19
ATOM     19  O3  IDS d   2     -40.928  22.840 -35.532  0.00  0.00     0.000 OA
ATOM     20  H   IDS d   2     -40.358  22.220 -36.012  0.00  0.00     0.000 HD
ENDBRANCH  10  19
BRANCH  12  21
ATOM     21  C6  IDS d   2     -42.285  27.391 -36.593  0.00  0.00     0.000 C 
ATOM     22  O61 IDS d   2     -42.550  27.012 -37.752  0.00  0.00     0.000 OA
BRANCH  21  23
ATOM     23  O62 IDS d   2     -42.625  28.480 -36.079  0.00  0.00     0.000 OA
ENDBRANCH  21  23
ENDBRANCH  12  21
ENDBRANCH   7   8
ENDBRANCH   6   7
BRANCH   1  25
ATOM     25  O3  SGN d   1     -40.322  27.836 -30.775  0.00  0.00    -0.391 OA
ATOM     26  H   SGN d   1     -40.632  27.070 -30.267  0.00  0.00     0.210 HD
ENDBRANCH   1  25
BRANCH   5  27
ATOM     27  C6  SGN d   1     -36.726  27.394 -34.065  0.00  0.00     0.198 C 
BRANCH  27  28
ATOM     28  O6  SGN d   1     -36.686  28.812 -34.249  0.00  0.00    -0.398 OA
ATOM     29  H   SGN d   1     -36.697  29.015 -35.197  0.00  0.00     0.209 HD
ENDBRANCH  27  28
ENDBRANCH   5  27
BRANCH   4  30
ATOM     30  N   SGN d   1     -38.396  27.521 -28.653  0.00  0.00    -0.189 NA
ATOM     31  H   SGN d   1     -37.687  28.254 -28.631  0.00  0.00     0.143 HD
BRANCH  30  32
ATOM     32  S1  SGN d   1     -39.518  27.825 -27.509  0.00  0.00     0.183 S 
ATOM     33  O2S SGN d   1     -38.832  28.267 -26.214  0.00  0.00    -0.582 OA
ATOM     34  O3S SGN d   1     -40.456  28.928 -28.003  0.00  0.00    -0.582 OA
ATOM     35  O1S SGN d   1     -40.328  26.555 -27.243  0.00  0.00    -0.582 OA
ENDBRANCH  30  32
ENDBRANCH   4  30
BRANCH   2  36
ATOM     36  O1  SGN d   1     -36.610  25.913 -30.258  0.00  0.00    -0.369 OA
ATOM     37  H   SGN d   1     -36.661  25.999 -31.222  0.00  0.00     0.212 HD
ENDBRANCH   2  36
TORSDOF 13
ENDMDL
MODEL 16
REMARK VINA RESULT:      -5.4      2.421      3.813
REMARK  13 active torsions:
REMARK  status: ('A' for Active; 'I' for Inactive)
REMARK    1  A    between atoms: C6_1  and  C5_27 
REMARK    2  A    between atoms: C6_1  and  O6_30 
REMARK    3  A    between atoms: O3_2  and  C3_3 
REMARK    4  A    between atoms: C6_4  and  C5_23 
REMARK    5  A    between atoms: C6_4  and  O62_11 
REMARK    6  A    between atoms: C1_6  and  O1_26 
REMARK    7  A    between atoms: C1_7  and  O1_9 
REMARK    8  A    between atoms: O1_9  and  C4_31 
REMARK    9  A    between atoms: C3_10  and  O3_29 
REMARK   10  A    between atoms: S_13  and  O2_22 
REMARK   11  A    between atoms: N_19  and  C2_25 
REMARK   12  A    between atoms: N_19  and  S1_28 
REMARK   13  A    between atoms: C2_20  and  O2_22 
ROOT
ATOM      1  C1  SGN d   1     -38.623  24.993 -34.297  0.00  0.00     0.000 C 
ATOM      2  C2  SGN d   1     -37.873  24.452 -33.091  0.00  0.00     0.000 C 
ATOM      3  C3  SGN d   1     -37.776  25.540 -32.034  0.00  0.00     0.000 C 
ATOM      4  C4  SGN d   1     -37.147  26.787 -32.633  0.00  0.00     0.000 C 
ATOM      5  C5  SGN d   1     -37.921  27.199 -33.875  0.00  0.00     0.000 C 
ATOM      6  O5  SGN d   1     -37.922  26.126 -34.830  0.00  0.00     0.000 OA
ENDROOT
BRANCH   6   7
ATOM      7  O1  SGN d   1     -37.195  27.846 -31.665  0.00  0.00     0.000 OA
BRANCH   7   8
ATOM      8  C1  IDS d   2     -38.292  28.300 -30.859  0.00  0.00     0.000 C 
ATOM      9  C2  IDS d   2     -38.042  29.744 -30.454  0.00  0.00     0.000 C 
ATOM     10  C3  IDS d   2     -39.348  30.368 -29.993  0.00  0.00     0.000 C 
ATOM     11  C4  IDS d   2     -40.289  30.444 -31.184  0.00  0.00     0.000 C 
ATOM     12  C5  IDS d   2     -39.862  29.418 -32.223  0.00  0.00     0.000 C 
ATOM     13  O5  IDS d   2     -39.538  28.185 -31.566  0.00  0.00     0.000 OA
BRANCH   9  14
ATOM     14  O2  IDS d   2     -37.054  29.790 -29.414  0.00  0.00     0.000 OA
BRANCH  14  15
ATOM     15  S   IDS d   2     -35.859  30.564 -29.596  0.00  0.00     0.000 S 
ATOM     16  O3S IDS d   2     -35.541  30.665 -31.089  0.00  0.00     0.000 OA
ATOM     17  O1S IDS d   2     -36.069  31.967 -29.022  0.00  0.00     0.000 OA
ATOM     18  O2S IDS d   2     -34.695  29.887 -28.871  0.00  0.00     0.000 OA
ENDBRANCH  14  15
ENDBRANCH   9  14
BRANCH  10  19
ATOM     19  O3  IDS d   2     -39.096  31.694 -29.501  0.00  0.00     0.000 OA
ATOM     20  H   IDS d   2     -38.364  31.669 -28.865  0.00  0.00     0.000 HD
ENDBRANCH  10  19
BRANCH  12  21
ATOM     21  C6  IDS d   2     -41.013  29.185 -33.204  0.00  0.00     0.000 C 
ATOM     22  O61 IDS d   2     -41.358  28.000 -33.398  0.00  0.00     0.000 OA
BRANCH  21  23
ATOM     23  O62 IDS d   2     -41.539  30.198 -33.716  0.00  0.00     0.000 OA
ENDBRANCH  21  23
ENDBRANCH  12  21
ENDBRANCH   7   8
ENDBRANCH   6   7
BRANCH   1  25
ATOM     25  O3  SGN d   1     -36.963  25.076 -30.945  0.00  0.00    -0.391 OA
ATOM     26  H   SGN d   1     -37.748  25.220 -30.393  0.00  0.00     0.210 HD
ENDBRANCH   1  25
BRANCH   5  27
ATOM     27  C6  SGN d   1     -37.280  28.428 -34.498  0.00  0.00     0.198 C 
BRANCH  27  28
ATOM     28  O6  SGN d   1     -36.816  28.112 -35.814  0.00  0.00    -0.398 OA
ATOM     29  H   SGN d   1     -37.350  28.590 -36.468  0.00  0.00     0.209 HD
ENDBRANCH  27  28
ENDBRANCH   5  27
BRANCH   4  30
ATOM     30  N   SGN d   1     -38.541  23.263 -32.539  0.00  0.00    -0.189 NA
ATOM     31  H   SGN d   1     -37.765  22.913 -31.977  0.00  0.00     0.143 HD
BRANCH  30  32
ATOM     32  S1  SGN d   1     -39.941  22.672 -31.947  0.00  0.00     0.183 S 
ATOM     33  O2S SGN d   1     -41.049  22.822 -32.992  0.00  0.00    -0.582 OA
ATOM     34  O3S SGN d   1     -39.755  21.195 -31.595  0.00  0.00    -0.582 OA
ATOM     35  O1S SGN d   1     -40.327  23.447 -30.687  0.00  0.00    -0.582 OA
ENDBRANCH  30  32
ENDBRANCH   4  30
BRANCH   2  36
ATOM     36  O1  SGN d   1     -39.946  25.387 -33.903  0.00  0.00    -0.369 OA
ATOM     37  H   SGN d   1     -39.670  26.257 -33.575  0.00  0.00     0.212 HD
ENDBRANCH   2  36
TORSDOF 13
ENDMDL
MODEL 17
REMARK VINA RESULT:      -5.3      3.496      7.645
REMARK  13 active torsions:
REMARK  status: ('A' for Active; 'I' for Inactive)
REMARK    1  A    between atoms: C6_1  and  C5_27 
REMARK    2  A    between atoms: C6_1  and  O6_30 
REMARK    3  A    between atoms: O3_2  and  C3_3 
REMARK    4  A    between atoms: C6_4  and  C5_23 
REMARK    5  A    between atoms: C6_4  and  O62_11 
REMARK    6  A    between atoms: C1_6  and  O1_26 
REMARK    7  A    between atoms: C1_7  and  O1_9 
REMARK    8  A    between atoms: O1_9  and  C4_31 
REMARK    9  A    between atoms: C3_10  and  O3_29 
REMARK   10  A    between atoms: S_13  and  O2_22 
REMARK   11  A    between atoms: N_19  and  C2_25 
REMARK   12  A    between atoms: N_19  and  S1_28 
REMARK   13  A    between atoms: C2_20  and  O2_22 
ROOT
ATOM      1  C1  SGN d   1     -37.698  30.620 -29.019  0.00  0.00     0.000 C 
ATOM      2  C2  SGN d   1     -36.410  29.918 -29.414  0.00  0.00     0.000 C 
ATOM      3  C3  SGN d   1     -36.737  28.753 -30.334  0.00  0.00     0.000 C 
ATOM      4  C4  SGN d   1     -37.752  27.838 -29.669  0.00  0.00     0.000 C 
ATOM      5  C5  SGN d   1     -38.965  28.649 -29.242  0.00  0.00     0.000 C 
ATOM      6  O5  SGN d   1     -38.563  29.695 -28.344  0.00  0.00     0.000 OA
ENDROOT
BRANCH   6   7
ATOM      7  O1  SGN d   1     -38.156  26.828 -30.606  0.00  0.00     0.000 OA
BRANCH   7   8
ATOM      8  C1  IDS d   2     -39.192  26.548 -31.558  0.00  0.00     0.000 C 
ATOM      9  C2  IDS d   2     -38.590  26.543 -32.954  0.00  0.00     0.000 C 
ATOM     10  C3  IDS d   2     -39.540  25.835 -33.906  0.00  0.00     0.000 C 
ATOM     11  C4  IDS d   2     -39.621  24.373 -33.500  0.00  0.00     0.000 C 
ATOM     12  C5  IDS d   2     -39.218  24.237 -32.040  0.00  0.00     0.000 C 
ATOM     13  O5  IDS d   2     -39.827  25.289 -31.280  0.00  0.00     0.000 OA
BRANCH   9  14
ATOM     14  O2  IDS d   2     -38.346  27.892 -33.380  0.00  0.00     0.000 OA
BRANCH  14  15
ATOM     15  S   IDS d   2     -37.077  28.244 -33.950  0.00  0.00     0.000 S 
ATOM     16  O3S IDS d   2     -36.728  29.683 -33.565  0.00  0.00     0.000 OA
ATOM     17  O1S IDS d   2     -36.000  27.298 -33.416  0.00  0.00     0.000 OA
ATOM     18  O2S IDS d   2     -37.148  28.126 -35.473  0.00  0.00     0.000 OA
ENDBRANCH  14  15
ENDBRANCH   9  14
BRANCH  10  19
ATOM     19  O3  IDS d   2     -39.031  25.929 -35.245  0.00  0.00     0.000 OA
ATOM     20  H   IDS d   2     -39.769  25.914 -35.873  0.00  0.00     0.000 HD
ENDBRANCH  10  19
BRANCH  12  21
ATOM     21  C6  IDS d   2     -39.695  22.883 -31.509  0.00  0.00     0.000 C 
ATOM     22  O61 IDS d   2     -39.240  21.865 -32.070  0.00  0.00     0.000 OA
BRANCH  21  23
ATOM     23  O62 IDS d   2     -40.482  22.899 -30.537  0.00  0.00     0.000 OA
ENDBRANCH  21  23
ENDBRANCH  12  21
ENDBRANCH   7   8
ENDBRANCH   6   7
BRANCH   1  25
ATOM     25  O3  SGN d   1     -35.540  28.012 -30.611  0.00  0.00    -0.391 OA
ATOM     26  H   SGN d   1     -36.127  27.756 -31.339  0.00  0.00     0.210 HD
ENDBRANCH   1  25
BRANCH   5  27
ATOM     27  C6  SGN d   1     -39.971  27.747 -28.548  0.00  0.00     0.198 C 
BRANCH  27  28
ATOM     28  O6  SGN d   1     -39.318  27.010 -27.511  0.00  0.00    -0.398 OA
ATOM     29  H   SGN d   1     -38.994  26.167 -27.868  0.00  0.00     0.209 HD
ENDBRANCH  27  28
ENDBRANCH   5  27
BRANCH   4  30
ATOM     30  N   SGN d   1     -35.479  30.844 -30.076  0.00  0.00    -0.189 NA
ATOM     31  H   SGN d   1     -36.067  31.436 -29.488  0.00  0.00     0.143 HD
BRANCH  30  32
ATOM     32  S1  SGN d   1     -33.915  31.076 -29.677  0.00  0.00     0.183 S 
ATOM     33  O2S SGN d   1     -33.825  31.880 -28.378  0.00  0.00    -0.582 OA
ATOM     34  O3S SGN d   1     -33.234  29.718 -29.495  0.00  0.00    -0.582 OA
ATOM     35  O1S SGN d   1     -33.215  31.847 -30.797  0.00  0.00    -0.582 OA
ENDBRANCH  30  32
ENDBRANCH   4  30
BRANCH   2  36
ATOM     36  O1  SGN d   1     -38.353  31.119 -30.196  0.00  0.00    -0.369 OA
ATOM     37  H   SGN d   1     -37.914  31.253 -31.050  0.00  0.00     0.212 HD
ENDBRANCH   2  36
TORSDOF 13
ENDMDL
MODEL 18
REMARK VINA RESULT:      -5.3      4.162      8.065
REMARK  13 active torsions:
REMARK  status: ('A' for Active; 'I' for Inactive)
REMARK    1  A    between atoms: C6_1  and  C5_27 
REMARK    2  A    between atoms: C6_1  and  O6_30 
REMARK    3  A    between atoms: O3_2  and  C3_3 
REMARK    4  A    between atoms: C6_4  and  C5_23 
REMARK    5  A    between atoms: C6_4  and  O62_11 
REMARK    6  A    between atoms: C1_6  and  O1_26 
REMARK    7  A    between atoms: C1_7  and  O1_9 
REMARK    8  A    between atoms: O1_9  and  C4_31 
REMARK    9  A    between atoms: C3_10  and  O3_29 
REMARK   10  A    between atoms: S_13  and  O2_22 
REMARK   11  A    between atoms: N_19  and  C2_25 
REMARK   12  A    between atoms: N_19  and  S1_28 
REMARK   13  A    between atoms: C2_20  and  O2_22 
ROOT
ATOM      1  C1  SGN d   1     -36.611  30.278 -26.901  0.00  0.00     0.000 C 
ATOM      2  C2  SGN d   1     -35.508  29.250 -27.093  0.00  0.00     0.000 C 
ATOM      3  C3  SGN d   1     -35.796  28.435 -28.343  0.00  0.00     0.000 C 
ATOM      4  C4  SGN d   1     -37.187  27.828 -28.256  0.00  0.00     0.000 C 
ATOM      5  C5  SGN d   1     -38.204  28.926 -27.984  0.00  0.00     0.000 C 
ATOM      6  O5  SGN d   1     -37.873  29.609 -26.765  0.00  0.00     0.000 OA
ENDROOT
BRANCH   6   7
ATOM      7  O1  SGN d   1     -37.497  27.185 -29.501  0.00  0.00     0.000 OA
BRANCH   7   8
ATOM      8  C1  IDS d   2     -38.369  27.285 -30.635  0.00  0.00     0.000 C 
ATOM      9  C2  IDS d   2     -37.603  27.906 -31.793  0.00  0.00     0.000 C 
ATOM     10  C3  IDS d   2     -38.342  27.623 -33.091  0.00  0.00     0.000 C 
ATOM     11  C4  IDS d   2     -38.306  26.125 -33.345  0.00  0.00     0.000 C 
ATOM     12  C5  IDS d   2     -38.072  25.401 -32.028  0.00  0.00     0.000 C 
ATOM     13  O5  IDS d   2     -38.886  25.997 -31.008  0.00  0.00     0.000 OA
BRANCH   9  14
ATOM     14  O2  IDS d   2     -37.464  29.318 -31.578  0.00  0.00     0.000 OA
BRANCH  14  15
ATOM     15  S   IDS d   2     -36.189  29.949 -31.771  0.00  0.00     0.000 S 
ATOM     16  O3S IDS d   2     -35.088  28.886 -31.748  0.00  0.00     0.000 OA
ATOM     17  O1S IDS d   2     -36.176  30.668 -33.122  0.00  0.00     0.000 OA
ATOM     18  O2S IDS d   2     -35.943  30.962 -30.653  0.00  0.00     0.000 OA
ENDBRANCH  14  15
ENDBRANCH   9  14
BRANCH  10  19
ATOM     19  O3  IDS d   2     -37.685  28.304 -34.171  0.00  0.00     0.000 OA
ATOM     20  H   IDS d   2     -37.725  27.757 -34.970  0.00  0.00     0.000 HD
ENDBRANCH  10  19
BRANCH  12  21
ATOM     21  C6  IDS d   2     -38.454  23.928 -32.188  0.00  0.00     0.000 C 
ATOM     22  O61 IDS d   2     -37.965  23.321 -33.163  0.00  0.00     0.000 OA
BRANCH  21  23
ATOM     23  O62 IDS d   2     -39.205  23.437 -31.316  0.00  0.00     0.000 OA
ENDBRANCH  21  23
ENDBRANCH  12  21
ENDBRANCH   7   8
ENDBRANCH   6   7
BRANCH   1  25
ATOM     25  O3  SGN d   1     -34.827  27.383 -28.461  0.00  0.00    -0.391 OA
ATOM     26  H   SGN d   1     -34.532  26.936 -27.653  0.00  0.00     0.210 HD
ENDBRANCH   1  25
BRANCH   5  27
ATOM     27  C6  SGN d   1     -39.593  28.324 -27.864  0.00  0.00     0.198 C 
BRANCH  27  28
ATOM     28  O6  SGN d   1     -39.510  27.048 -27.222  0.00  0.00    -0.398 OA
ATOM     29  H   SGN d   1     -39.927  27.099 -26.347  0.00  0.00     0.209 HD
ENDBRANCH  27  28
ENDBRANCH   5  27
BRANCH   4  30
ATOM     30  N   SGN d   1     -34.191  29.895 -27.197  0.00  0.00    -0.189 NA
ATOM     31  H   SGN d   1     -33.687  29.082 -26.844  0.00  0.00     0.143 HD
BRANCH  30  32
ATOM     32  S1  SGN d   1     -33.167  30.830 -28.056  0.00  0.00     0.183 S 
ATOM     33  O2S SGN d   1     -31.861  31.017 -27.280  0.00  0.00    -0.582 OA
ATOM     34  O3S SGN d   1     -32.881  30.160 -29.401  0.00  0.00    -0.582 OA
ATOM     35  O1S SGN d   1     -33.811  32.196 -28.299  0.00  0.00    -0.582 OA
ENDBRANCH  30  32
ENDBRANCH   4  30
BRANCH   2  36
ATOM     36  O1  SGN d   1     -36.652  31.156 -28.037  0.00  0.00    -0.369 OA
ATOM     37  H   SGN d   1     -37.464  30.879 -27.585  0.00  0.00     0.212 HD
ENDBRANCH   2  36
TORSDOF 13
ENDMDL
MODEL 19
REMARK VINA RESULT:      -5.2      2.799      5.191
REMARK  13 active torsions:
REMARK  status: ('A' for Active; 'I' for Inactive)
REMARK    1  A    between atoms: C6_1  and  C5_27 
REMARK    2  A    between atoms: C6_1  and  O6_30 
REMARK    3  A    between atoms: O3_2  and  C3_3 
REMARK    4  A    between atoms: C6_4  and  C5_23 
REMARK    5  A    between atoms: C6_4  and  O62_11 
REMARK    6  A    between atoms: C1_6  and  O1_26 
REMARK    7  A    between atoms: C1_7  and  O1_9 
REMARK    8  A    between atoms: O1_9  and  C4_31 
REMARK    9  A    between atoms: C3_10  and  O3_29 
REMARK   10  A    between atoms: S_13  and  O2_22 
REMARK   11  A    between atoms: N_19  and  C2_25 
REMARK   12  A    between atoms: N_19  and  S1_28 
REMARK   13  A    between atoms: C2_20  and  O2_22 
ROOT
ATOM      1  C1  SGN d   1     -42.224  25.017 -30.437  0.00  0.00     0.000 C 
ATOM      2  C2  SGN d   1     -41.563  25.067 -31.806  0.00  0.00     0.000 C 
ATOM      3  C3  SGN d   1     -40.347  25.976 -31.741  0.00  0.00     0.000 C 
ATOM      4  C4  SGN d   1     -40.749  27.341 -31.207  0.00  0.00     0.000 C 
ATOM      5  C5  SGN d   1     -41.470  27.175 -29.879  0.00  0.00     0.000 C 
ATOM      6  O5  SGN d   1     -42.625  26.339 -30.049  0.00  0.00     0.000 OA
ENDROOT
BRANCH   6   7
ATOM      7  O1  SGN d   1     -39.569  28.136 -31.017  0.00  0.00     0.000 OA
BRANCH   7   8
ATOM      8  C1  IDS d   2     -38.301  27.619 -30.591  0.00  0.00     0.000 C 
ATOM      9  C2  IDS d   2     -37.199  28.293 -31.394  0.00  0.00     0.000 C 
ATOM     10  C3  IDS d   2     -35.872  28.100 -30.681  0.00  0.00     0.000 C 
ATOM     11  C4  IDS d   2     -35.924  28.854 -29.362  0.00  0.00     0.000 C 
ATOM     12  C5  IDS d   2     -37.376  29.049 -28.955  0.00  0.00     0.000 C 
ATOM     13  O5  IDS d   2     -38.100  27.832 -29.183  0.00  0.00     0.000 OA
BRANCH   9  14
ATOM     14  O2  IDS d   2     -37.158  27.738 -32.717  0.00  0.00     0.000 OA
BRANCH  14  15
ATOM     15  S   IDS d   2     -37.302  28.598 -33.857  0.00  0.00     0.000 S 
ATOM     16  O3S IDS d   2     -36.609  27.961 -35.064  0.00  0.00     0.000 OA
ATOM     17  O1S IDS d   2     -38.788  28.790 -34.164  0.00  0.00     0.000 OA
ATOM     18  O2S IDS d   2     -36.663  29.955 -33.560  0.00  0.00     0.000 OA
ENDBRANCH  14  15
ENDBRANCH   9  14
BRANCH  10  19
ATOM     19  O3  IDS d   2     -34.813  28.634 -31.491  0.00  0.00     0.000 OA
ATOM     20  H   IDS d   2     -35.189  29.204 -32.180  0.00  0.00     0.000 HD
ENDBRANCH  10  19
BRANCH  12  21
ATOM     21  C6  IDS d   2     -37.440  29.408 -27.469  0.00  0.00     0.000 C 
ATOM     22  O61 IDS d   2     -38.574  29.598 -26.983  0.00  0.00     0.000 OA
BRANCH  21  23
ATOM     23  O62 IDS d   2     -36.355  29.457 -26.848  0.00  0.00     0.000 OA
ENDBRANCH  21  23
ENDBRANCH  12  21
ENDBRANCH   7   8
ENDBRANCH   6   7
BRANCH   1  25
ATOM     25  O3  SGN d   1     -39.792  26.126 -33.056  0.00  0.00    -0.391 OA
ATOM     26  H   SGN d   1     -40.399  26.183 -33.810  0.00  0.00     0.210 HD
ENDBRANCH   1  25
BRANCH   5  27
ATOM     27  C6  SGN d   1     -41.904  28.533 -29.354  0.00  0.00     0.198 C 
BRANCH  27  28
ATOM     28  O6  SGN d   1     -40.864  29.090 -28.545  0.00  0.00    -0.398 OA
ATOM     29  H   SGN d   1     -40.567  29.929 -28.932  0.00  0.00     0.209 HD
ENDBRANCH  27  28
ENDBRANCH   5  27
BRANCH   4  30
ATOM     30  N   SGN d   1     -41.172  23.723 -32.257  0.00  0.00    -0.189 NA
ATOM     31  H   SGN d   1     -41.278  23.965 -33.242  0.00  0.00     0.143 HD
BRANCH  30  32
ATOM     32  S1  SGN d   1     -40.177  22.438 -32.124  0.00  0.00     0.183 S 
ATOM     33  O2S SGN d   1     -38.720  22.898 -32.215  0.00  0.00    -0.582 OA
ATOM     34  O3S SGN d   1     -40.421  21.749 -30.780  0.00  0.00    -0.582 OA
ATOM     35  O1S SGN d   1     -40.467  21.452 -33.257  0.00  0.00    -0.582 OA
ENDBRANCH  30  32
ENDBRANCH   4  30
BRANCH   2  36
ATOM     36  O1  SGN d   1     -41.295  24.494 -29.475  0.00  0.00    -0.369 OA
ATOM     37  H   SGN d   1     -40.989  25.397 -29.299  0.00  0.00     0.212 HD
ENDBRANCH   2  36
TORSDOF 13
ENDMDL
MODEL 20
REMARK VINA RESULT:      -5.2      3.674      6.500
REMARK  13 active torsions:
REMARK  status: ('A' for Active; 'I' for Inactive)
REMARK    1  A    between atoms: C6_1  and  C5_27 
REMARK    2  A    between atoms: C6_1  and  O6_30 
REMARK    3  A    between atoms: O3_2  and  C3_3 
REMARK    4  A    between atoms: C6_4  and  C5_23 
REMARK    5  A    between atoms: C6_4  and  O62_11 
REMARK    6  A    between atoms: C1_6  and  O1_26 
REMARK    7  A    between atoms: C1_7  and  O1_9 
REMARK    8  A    between atoms: O1_9  and  C4_31 
REMARK    9  A    between atoms: C3_10  and  O3_29 
REMARK   10  A    between atoms: S_13  and  O2_22 
REMARK   11  A    between atoms: N_19  and  C2_25 
REMARK   12  A    between atoms: N_19  and  S1_28 
REMARK   13  A    between atoms: C2_20  and  O2_22 
ROOT
ATOM      1  C1  SGN d   1     -37.734  26.380 -33.803  0.00  0.00     0.000 C 
ATOM      2  C2  SGN d   1     -37.095  25.495 -32.746  0.00  0.00     0.000 C 
ATOM      3  C3  SGN d   1     -37.116  26.218 -31.409  0.00  0.00     0.000 C 
ATOM      4  C4  SGN d   1     -36.453  27.579 -31.547  0.00  0.00     0.000 C 
ATOM      5  C5  SGN d   1     -37.110  28.352 -32.679  0.00  0.00     0.000 C 
ATOM      6  O5  SGN d   1     -37.003  27.611 -33.904  0.00  0.00     0.000 OA
ENDROOT
BRANCH   6   7
ATOM      7  O1  SGN d   1     -36.610  28.303 -30.317  0.00  0.00     0.000 OA
BRANCH   7   8
ATOM      8  C1  IDS d   2     -36.082  29.574 -29.914  0.00  0.00     0.000 C 
ATOM      9  C2  IDS d   2     -37.182  30.369 -29.228  0.00  0.00     0.000 C 
ATOM     10  C3  IDS d   2     -36.557  31.497 -28.424  0.00  0.00     0.000 C 
ATOM     11  C4  IDS d   2     -35.742  30.885 -27.296  0.00  0.00     0.000 C 
ATOM     12  C5  IDS d   2     -35.373  29.457 -27.664  0.00  0.00     0.000 C 
ATOM     13  O5  IDS d   2     -34.955  29.414 -29.036  0.00  0.00     0.000 OA
BRANCH   9  14
ATOM     14  O2  IDS d   2     -38.092  30.883 -30.212  0.00  0.00     0.000 OA
BRANCH  14  15
ATOM     15  S   IDS d   2     -39.485  30.542 -30.145  0.00  0.00     0.000 S 
ATOM     16  O3S IDS d   2     -39.651  29.233 -29.370  0.00  0.00     0.000 OA
ATOM     17  O1S IDS d   2     -40.248  31.658 -29.430  0.00  0.00     0.000 OA
ATOM     18  O2S IDS d   2     -40.040  30.371 -31.560  0.00  0.00     0.000 OA
ENDBRANCH  14  15
ENDBRANCH   9  14
BRANCH  10  19
ATOM     19  O3  IDS d   2     -37.595  32.319 -27.869  0.00  0.00     0.000 OA
ATOM     20  H   IDS d   2     -38.174  31.777 -27.312  0.00  0.00     0.000 HD
ENDBRANCH  10  19
BRANCH  12  21
ATOM     21  C6  IDS d   2     -34.226  28.985 -26.768  0.00  0.00     0.000 C 
ATOM     22  O61 IDS d   2     -33.287  29.788 -26.585  0.00  0.00     0.000 OA
BRANCH  21  23
ATOM     23  O62 IDS d   2     -34.328  27.843 -26.268  0.00  0.00     0.000 OA
ENDBRANCH  21  23
ENDBRANCH  12  21
ENDBRANCH   7   8
ENDBRANCH   6   7
BRANCH   1  25
ATOM     25  O3  SGN d   1     -36.404  25.441 -30.434  0.00  0.00    -0.391 OA
ATOM     26  H   SGN d   1     -35.466  25.350 -30.664  0.00  0.00     0.210 HD
ENDBRANCH   1  25
BRANCH   5  27
ATOM     27  C6  SGN d   1     -36.433  29.701 -32.844  0.00  0.00     0.198 C 
BRANCH  27  28
ATOM     28  O6  SGN d   1     -37.419  30.706 -33.097  0.00  0.00    -0.398 OA
ATOM     29  H   SGN d   1     -37.530  31.256 -32.306  0.00  0.00     0.209 HD
ENDBRANCH  27  28
ENDBRANCH   5  27
BRANCH   4  30
ATOM     30  N   SGN d   1     -37.793  24.205 -32.638  0.00  0.00    -0.189 NA
ATOM     31  H   SGN d   1     -37.127  23.693 -32.060  0.00  0.00     0.143 HD
BRANCH  30  32
ATOM     32  S1  SGN d   1     -39.270  23.529 -32.484  0.00  0.00     0.183 S 
ATOM     33  O2S SGN d   1     -40.016  23.606 -33.818  0.00  0.00    -0.582 OA
ATOM     34  O3S SGN d   1     -39.113  22.068 -32.060  0.00  0.00    -0.582 OA
ATOM     35  O1S SGN d   1     -40.064  24.283 -31.416  0.00  0.00    -0.582 OA
ENDBRANCH  30  32
ENDBRANCH   4  30
BRANCH   2  36
ATOM     36  O1  SGN d   1     -39.095  26.658 -33.438  0.00  0.00    -0.369 OA
ATOM     37  H   SGN d   1     -39.475  26.506 -32.559  0.00  0.00     0.212 HD
ENDBRANCH   2  36
TORSDOF 13
ENDMDL
MODEL 21
REMARK VINA RESULT:      -5.2      3.661      6.203
REMARK  13 active torsions:
REMARK  status: ('A' for Active; 'I' for Inactive)
REMARK    1  A    between atoms: C6_1  and  C5_27 
REMARK    2  A    between atoms: C6_1  and  O6_30 
REMARK    3  A    between atoms: O3_2  and  C3_3 
REMARK    4  A    between atoms: C6_4  and  C5_23 
REMARK    5  A    between atoms: C6_4  and  O62_11 
REMARK    6  A    between atoms: C1_6  and  O1_26 
REMARK    7  A    between atoms: C1_7  and  O1_9 
REMARK    8  A    between atoms: O1_9  and  C4_31 
REMARK    9  A    between atoms: C3_10  and  O3_29 
REMARK   10  A    between atoms: S_13  and  O2_22 
REMARK   11  A    between atoms: N_19  and  C2_25 
REMARK   12  A    between atoms: N_19  and  S1_28 
REMARK   13  A    between atoms: C2_20  and  O2_22 
ROOT
ATOM      1  C1  SGN d   1     -37.489  26.646 -33.723  0.00  0.00     0.000 C 
ATOM      2  C2  SGN d   1     -37.012  25.837 -32.528  0.00  0.00     0.000 C 
ATOM      3  C3  SGN d   1     -37.236  26.642 -31.258  0.00  0.00     0.000 C 
ATOM      4  C4  SGN d   1     -36.565  28.000 -31.382  0.00  0.00     0.000 C 
ATOM      5  C5  SGN d   1     -37.049  28.692 -32.647  0.00  0.00     0.000 C 
ATOM      6  O5  SGN d   1     -36.756  27.878 -33.793  0.00  0.00     0.000 OA
ENDROOT
BRANCH   6   7
ATOM      7  O1  SGN d   1     -36.907  28.797 -30.238  0.00  0.00     0.000 OA
BRANCH   7   8
ATOM      8  C1  IDS d   2     -37.626  29.980 -29.862  0.00  0.00     0.000 C 
ATOM      9  C2  IDS d   2     -38.248  29.764 -28.492  0.00  0.00     0.000 C 
ATOM     10  C3  IDS d   2     -38.626  31.109 -27.896  0.00  0.00     0.000 C 
ATOM     11  C4  IDS d   2     -37.350  31.893 -27.637  0.00  0.00     0.000 C 
ATOM     12  C5  IDS d   2     -36.243  31.353 -28.529  0.00  0.00     0.000 C 
ATOM     13  O5  IDS d   2     -36.763  31.130 -29.847  0.00  0.00     0.000 OA
BRANCH   9  14
ATOM     14  O2  IDS d   2     -39.398  28.913 -28.612  0.00  0.00     0.000 OA
BRANCH  14  15
ATOM     15  S   IDS d   2     -39.485  27.712 -27.832  0.00  0.00     0.000 S 
ATOM     16  O3S IDS d   2     -40.142  28.027 -26.486  0.00  0.00     0.000 OA
ATOM     17  O1S IDS d   2     -40.325  26.677 -28.581  0.00  0.00     0.000 OA
ATOM     18  O2S IDS d   2     -38.081  27.153 -27.595  0.00  0.00     0.000 OA
ENDBRANCH  14  15
ENDBRANCH   9  14
BRANCH  10  19
ATOM     19  O3  IDS d   2     -39.318  30.904 -26.655  0.00  0.00     0.000 OA
ATOM     20  H   IDS d   2     -39.107  30.023 -26.309  0.00  0.00     0.000 HD
ENDBRANCH  10  19
BRANCH  12  21
ATOM     21  C6  IDS d   2     -35.107  32.376 -28.597  0.00  0.00     0.000 C 
ATOM     22  O61 IDS d   2     -33.963  31.968 -28.308  0.00  0.00     0.000 OA
BRANCH  21  23
ATOM     23  O62 IDS d   2     -35.405  33.534 -28.963  0.00  0.00     0.000 OA
ENDBRANCH  21  23
ENDBRANCH  12  21
ENDBRANCH   7   8
ENDBRANCH   6   7
BRANCH   1  25
ATOM     25  O3  SGN d   1     -36.675  25.937 -30.141  0.00  0.00    -0.391 OA
ATOM     26  H   SGN d   1     -37.492  26.266 -29.734  0.00  0.00     0.210 HD
ENDBRANCH   1  25
BRANCH   5  27
ATOM     27  C6  SGN d   1     -36.359  30.037 -32.795  0.00  0.00     0.198 C 
BRANCH  27  28
ATOM     28  O6  SGN d   1     -35.130  30.030 -32.063  0.00  0.00    -0.398 OA
ATOM     29  H   SGN d   1     -34.653  29.203 -32.241  0.00  0.00     0.209 HD
ENDBRANCH  27  28
ENDBRANCH   5  27
BRANCH   4  30
ATOM     30  N   SGN d   1     -37.714  24.547 -32.444  0.00  0.00    -0.189 NA
ATOM     31  H   SGN d   1     -37.074  24.078 -31.803  0.00  0.00     0.143 HD
BRANCH  30  32
ATOM     32  S1  SGN d   1     -39.174  23.825 -32.370  0.00  0.00     0.183 S 
ATOM     33  O2S SGN d   1     -39.910  24.006 -33.700  0.00  0.00    -0.582 OA
ATOM     34  O3S SGN d   1     -38.986  22.335 -32.079  0.00  0.00    -0.582 OA
ATOM     35  O1S SGN d   1     -39.997  24.459 -31.247  0.00  0.00    -0.582 OA
ENDBRANCH  30  32
ENDBRANCH   4  30
BRANCH   2  36
ATOM     36  O1  SGN d   1     -38.891  26.927 -33.584  0.00  0.00    -0.369 OA
ATOM     37  H   SGN d   1     -38.601  26.574 -34.440  0.00  0.00     0.212 HD
ENDBRANCH   2  36
TORSDOF 13
ENDMDL
MODEL 22
REMARK VINA RESULT:      -5.2      3.915      6.402
REMARK  13 active torsions:
REMARK  status: ('A' for Active; 'I' for Inactive)
REMARK    1  A    between atoms: C6_1  and  C5_27 
REMARK    2  A    between atoms: C6_1  and  O6_30 
REMARK    3  A    between atoms: O3_2  and  C3_3 
REMARK    4  A    between atoms: C6_4  and  C5_23 
REMARK    5  A    between atoms: C6_4  and  O62_11 
REMARK    6  A    between atoms: C1_6  and  O1_26 
REMARK    7  A    between atoms: C1_7  and  O1_9 
REMARK    8  A    between atoms: O1_9  and  C4_31 
REMARK    9  A    between atoms: C3_10  and  O3_29 
REMARK   10  A    between atoms: S_13  and  O2_22 
REMARK   11  A    between atoms: N_19  and  C2_25 
REMARK   12  A    between atoms: N_19  and  S1_28 
REMARK   13  A    between atoms: C2_20  and  O2_22 
ROOT
ATOM      1  C1  SGN d   1     -39.629  27.253 -32.592  0.00  0.00     0.000 C 
ATOM      2  C2  SGN d   1     -38.460  26.313 -32.348  0.00  0.00     0.000 C 
ATOM      3  C3  SGN d   1     -37.440  27.003 -31.457  0.00  0.00     0.000 C 
ATOM      4  C4  SGN d   1     -37.035  28.334 -32.070  0.00  0.00     0.000 C 
ATOM      5  C5  SGN d   1     -38.278  29.164 -32.348  0.00  0.00     0.000 C 
ATOM      6  O5  SGN d   1     -39.158  28.450 -33.229  0.00  0.00     0.000 OA
ENDROOT
BRANCH   6   7
ATOM      7  O1  SGN d   1     -36.186  29.034 -31.148  0.00  0.00     0.000 OA
BRANCH   7   8
ATOM      8  C1  IDS d   2     -36.177  30.160 -30.260  0.00  0.00     0.000 C 
ATOM      9  C2  IDS d   2     -36.255  29.658 -28.827  0.00  0.00     0.000 C 
ATOM     10  C3  IDS d   2     -35.813  30.764 -27.884  0.00  0.00     0.000 C 
ATOM     11  C4  IDS d   2     -34.340  31.042 -28.130  0.00  0.00     0.000 C 
ATOM     12  C5  IDS d   2     -33.970  30.571 -29.528  0.00  0.00     0.000 C 
ATOM     13  O5  IDS d   2     -34.999  30.962 -30.448  0.00  0.00     0.000 OA
BRANCH   9  14
ATOM     14  O2  IDS d   2     -37.596  29.237 -28.535  0.00  0.00     0.000 OA
BRANCH  14  15
ATOM     15  S   IDS d   2     -37.833  27.933 -27.986  0.00  0.00     0.000 S 
ATOM     16  O3S IDS d   2     -37.931  28.032 -26.462  0.00  0.00     0.000 OA
ATOM     17  O1S IDS d   2     -39.143  27.376 -28.546  0.00  0.00     0.000 OA
ATOM     18  O2S IDS d   2     -36.681  27.000 -28.364  0.00  0.00     0.000 OA
ENDBRANCH  14  15
ENDBRANCH   9  14
BRANCH  10  19
ATOM     19  O3  IDS d   2     -35.995  30.333 -26.526  0.00  0.00     0.000 OA
ATOM     20  H   IDS d   2     -36.602  29.578 -26.504  0.00  0.00     0.000 HD
ENDBRANCH  10  19
BRANCH  12  21
ATOM     21  C6  IDS d   2     -32.646  31.215 -29.943  0.00  0.00     0.000 C 
ATOM     22  O61 IDS d   2     -31.600  30.660 -29.548  0.00  0.00     0.000 OA
BRANCH  21  23
ATOM     23  O62 IDS d   2     -32.710  32.232 -30.669  0.00  0.00     0.000 OA
ENDBRANCH  21  23
ENDBRANCH  12  21
ENDBRANCH   7   8
ENDBRANCH   6   7
BRANCH   1  25
ATOM     25  O3  SGN d   1     -36.280  26.170 -31.324  0.00  0.00    -0.391 OA
ATOM     26  H   SGN d   1     -36.477  26.156 -30.374  0.00  0.00     0.210 HD
ENDBRANCH   1  25
BRANCH   5  27
ATOM     27  C6  SGN d   1     -37.883  30.483 -32.990  0.00  0.00     0.198 C 
BRANCH  27  28
ATOM     28  O6  SGN d   1     -36.609  30.346 -33.625  0.00  0.00    -0.398 OA
ATOM     29  H   SGN d   1     -36.675  29.702 -34.348  0.00  0.00     0.209 HD
ENDBRANCH  27  28
ENDBRANCH   5  27
BRANCH   4  30
ATOM     30  N   SGN d   1     -38.908  25.055 -31.730  0.00  0.00    -0.189 NA
ATOM     31  H   SGN d   1     -39.819  25.506 -31.810  0.00  0.00     0.143 HD
BRANCH  30  32
ATOM     32  S1  SGN d   1     -38.894  23.705 -32.644  0.00  0.00     0.183 S 
ATOM     33  O2S SGN d   1     -39.935  23.823 -33.759  0.00  0.00    -0.582 OA
ATOM     34  O3S SGN d   1     -37.502  23.521 -33.250  0.00  0.00    -0.582 OA
ATOM     35  O1S SGN d   1     -39.227  22.496 -31.768  0.00  0.00    -0.582 OA
ENDBRANCH  30  32
ENDBRANCH   4  30
BRANCH   2  36
ATOM     36  O1  SGN d   1     -40.247  27.586 -31.339  0.00  0.00    -0.369 OA
ATOM     37  H   SGN d   1     -40.810  27.379 -32.101  0.00  0.00     0.212 HD
ENDBRANCH   2  36
TORSDOF 13
ENDMDL
MODEL 23
REMARK VINA RESULT:      -5.1      2.921      4.662
REMARK  13 active torsions:
REMARK  status: ('A' for Active; 'I' for Inactive)
REMARK    1  A    between atoms: C6_1  and  C5_27 
REMARK    2  A    between atoms: C6_1  and  O6_30 
REMARK    3  A    between atoms: O3_2  and  C3_3 
REMARK    4  A    between atoms: C6_4  and  C5_23 
REMARK    5  A    between atoms: C6_4  and  O62_11 
REMARK    6  A    between atoms: C1_6  and  O1_26 
REMARK    7  A    between atoms: C1_7  and  O1_9 
REMARK    8  A    between atoms: O1_9  and  C4_31 
REMARK    9  A    between atoms: C3_10  and  O3_29 
REMARK   10  A    between atoms: S_13  and  O2_22 
REMARK   11  A    between atoms: N_19  and  C2_25 
REMARK   12  A    between atoms: N_19  and  S1_28 
REMARK   13  A    between atoms: C2_20  and  O2_22 
ROOT
ATOM      1  C1  SGN d   1     -39.708  26.415 -33.983  0.00  0.00     0.000 C 
ATOM      2  C2  SGN d   1     -38.569  25.412 -33.913  0.00  0.00     0.000 C 
ATOM      3  C3  SGN d   1     -37.661  25.768 -32.747  0.00  0.00     0.000 C 
ATOM      4  C4  SGN d   1     -37.197  27.210 -32.874  0.00  0.00     0.000 C 
ATOM      5  C5  SGN d   1     -38.405  28.121 -33.018  0.00  0.00     0.000 C 
ATOM      6  O5  SGN d   1     -39.176  27.736 -34.166  0.00  0.00     0.000 OA
ENDROOT
BRANCH   6   7
ATOM      7  O1  SGN d   1     -36.461  27.571 -31.695  0.00  0.00     0.000 OA
BRANCH   7   8
ATOM      8  C1  IDS d   2     -36.799  27.532 -30.302  0.00  0.00     0.000 C 
ATOM      9  C2  IDS d   2     -36.675  28.934 -29.726  0.00  0.00     0.000 C 
ATOM     10  C3  IDS d   2     -37.430  29.004 -28.409  0.00  0.00     0.000 C 
ATOM     11  C4  IDS d   2     -38.911  28.819 -28.697  0.00  0.00     0.000 C 
ATOM     12  C5  IDS d   2     -39.075  28.099 -30.026  0.00  0.00     0.000 C 
ATOM     13  O5  IDS d   2     -38.129  27.024 -30.103  0.00  0.00     0.000 OA
BRANCH   9  14
ATOM     14  O2  IDS d   2     -35.289  29.260 -29.542  0.00  0.00     0.000 OA
BRANCH  14  15
ATOM     15  S   IDS d   2     -34.746  30.444 -30.144  0.00  0.00     0.000 S 
ATOM     16  O3S IDS d   2     -33.274  30.586 -29.750  0.00  0.00     0.000 OA
ATOM     17  O1S IDS d   2     -34.860  30.339 -31.666  0.00  0.00     0.000 OA
ATOM     18  O2S IDS d   2     -35.524  31.668 -29.659  0.00  0.00     0.000 OA
ENDBRANCH  14  15
ENDBRANCH   9  14
BRANCH  10  19
ATOM     19  O3  IDS d   2     -37.219  30.289 -27.806  0.00  0.00     0.000 OA
ATOM     20  H   IDS d   2     -37.589  30.979 -28.377  0.00  0.00     0.000 HD
ENDBRANCH  10  19
BRANCH  12  21
ATOM     21  C6  IDS d   2     -40.494  27.536 -30.123  0.00  0.00     0.000 C 
ATOM     22  O61 IDS d   2     -41.357  28.267 -30.652  0.00  0.00     0.000 OA
BRANCH  21  23
ATOM     23  O62 IDS d   2     -40.677  26.377 -29.688  0.00  0.00     0.000 OA
ENDBRANCH  21  23
ENDBRANCH  12  21
ENDBRANCH   7   8
ENDBRANCH   6   7
BRANCH   1  25
ATOM     25  O3  SGN d   1     -36.517  24.901 -32.750  0.00  0.00    -0.391 OA
ATOM     26  H   SGN d   1     -36.246  25.601 -32.137  0.00  0.00     0.210 HD
ENDBRANCH   1  25
BRANCH   5  27
ATOM     27  C6  SGN d   1     -37.949  29.561 -33.177  0.00  0.00     0.198 C 
BRANCH  27  28
ATOM     28  O6  SGN d   1     -36.607  29.588 -33.670  0.00  0.00    -0.398 OA
ATOM     29  H   SGN d   1     -36.082  30.213 -33.145  0.00  0.00     0.209 HD
ENDBRANCH  27  28
ENDBRANCH   5  27
BRANCH   4  30
ATOM     30  N   SGN d   1     -39.076  24.040 -33.764  0.00  0.00    -0.189 NA
ATOM     31  H   SGN d   1     -38.237  23.577 -34.115  0.00  0.00     0.143 HD
BRANCH  30  32
ATOM     32  S1  SGN d   1     -39.922  22.993 -32.843  0.00  0.00     0.183 S 
ATOM     33  O2S SGN d   1     -40.953  23.754 -32.007  0.00  0.00    -0.582 OA
ATOM     34  O3S SGN d   1     -40.631  21.984 -33.749  0.00  0.00    -0.582 OA
ATOM     35  O1S SGN d   1     -38.964  22.249 -31.911  0.00  0.00    -0.582 OA
ENDBRANCH  30  32
ENDBRANCH   4  30
BRANCH   2  36
ATOM     36  O1  SGN d   1     -40.466  26.368 -32.764  0.00  0.00    -0.369 OA
ATOM     37  H   SGN d   1     -39.873  27.007 -32.338  0.00  0.00     0.212 HD
ENDBRANCH   2  36
TORSDOF 13
ENDMDL
MODEL 24
REMARK VINA RESULT:      -5.1      3.351      7.186
REMARK  13 active torsions:
REMARK  status: ('A' for Active; 'I' for Inactive)
REMARK    1  A    between atoms: C6_1  and  C5_27 
REMARK    2  A    between atoms: C6_1  and  O6_30 
REMARK    3  A    between atoms: O3_2  and  C3_3 
REMARK    4  A    between atoms: C6_4  and  C5_23 
REMARK    5  A    between atoms: C6_4  and  O62_11 
REMARK    6  A    between atoms: C1_6  and  O1_26 
REMARK    7  A    between atoms: C1_7  and  O1_9 
REMARK    8  A    between atoms: O1_9  and  C4_31 
REMARK    9  A    between atoms: C3_10  and  O3_29 
REMARK   10  A    between atoms: S_13  and  O2_22 
REMARK   11  A    between atoms: N_19  and  C2_25 
REMARK   12  A    between atoms: N_19  and  S1_28 
REMARK   13  A    between atoms: C2_20  and  O2_22 
ROOT
ATOM      1  C1  SGN d   1     -37.294  30.719 -29.623  0.00  0.00     0.000 C 
ATOM      2  C2  SGN d   1     -37.150  29.668 -28.535  0.00  0.00     0.000 C 
ATOM      3  C3  SGN d   1     -37.336  28.288 -29.144  0.00  0.00     0.000 C 
ATOM      4  C4  SGN d   1     -38.664  28.224 -29.882  0.00  0.00     0.000 C 
ATOM      5  C5  SGN d   1     -38.741  29.360 -30.888  0.00  0.00     0.000 C 
ATOM      6  O5  SGN d   1     -38.598  30.621 -30.215  0.00  0.00     0.000 OA
ENDROOT
BRANCH   6   7
ATOM      7  O1  SGN d   1     -38.757  26.967 -30.569  0.00  0.00     0.000 OA
BRANCH   7   8
ATOM      8  C1  IDS d   2     -37.728  26.301 -31.314  0.00  0.00     0.000 C 
ATOM      9  C2  IDS d   2     -38.362  25.213 -32.166  0.00  0.00     0.000 C 
ATOM     10  C3  IDS d   2     -37.391  24.804 -33.261  0.00  0.00     0.000 C 
ATOM     11  C4  IDS d   2     -37.201  25.986 -34.197  0.00  0.00     0.000 C 
ATOM     12  C5  IDS d   2     -37.558  27.268 -33.462  0.00  0.00     0.000 C 
ATOM     13  O5  IDS d   2     -37.002  27.227 -32.140  0.00  0.00     0.000 OA
BRANCH   9  14
ATOM     14  O2  IDS d   2     -38.707  24.091 -31.339  0.00  0.00     0.000 OA
BRANCH  14  15
ATOM     15  S   IDS d   2     -39.893  23.333 -31.621  0.00  0.00     0.000 S 
ATOM     16  O3S IDS d   2     -40.697  24.035 -32.717  0.00  0.00     0.000 OA
ATOM     17  O1S IDS d   2     -39.501  21.932 -32.093  0.00  0.00     0.000 OA
ATOM     18  O2S IDS d   2     -40.744  23.224 -30.355  0.00  0.00     0.000 OA
ENDBRANCH  14  15
ENDBRANCH   9  14
BRANCH  10  19
ATOM     19  O3  IDS d   2     -37.938  23.698 -33.995  0.00  0.00     0.000 OA
ATOM     20  H   IDS d   2     -38.569  24.028 -34.654  0.00  0.00     0.000 HD
ENDBRANCH  10  19
BRANCH  12  21
ATOM     21  C6  IDS d   2     -36.978  28.463 -34.221  0.00  0.00     0.000 C 
ATOM     22  O61 IDS d   2     -36.806  29.515 -33.570  0.00  0.00     0.000 OA
BRANCH  21  23
ATOM     23  O62 IDS d   2     -36.695  28.289 -35.427  0.00  0.00     0.000 OA
ENDBRANCH  21  23
ENDBRANCH  12  21
ENDBRANCH   7   8
ENDBRANCH   6   7
BRANCH   1  25
ATOM     25  O3  SGN d   1     -37.324  27.300 -28.103  0.00  0.00    -0.391 OA
ATOM     26  H   SGN d   1     -38.177  27.349 -27.643  0.00  0.00     0.210 HD
ENDBRANCH   1  25
BRANCH   5  27
ATOM     27  C6  SGN d   1     -40.078  29.322 -31.608  0.00  0.00     0.198 C 
BRANCH  27  28
ATOM     28  O6  SGN d   1     -39.921  29.820 -32.940  0.00  0.00    -0.398 OA
ATOM     29  H   SGN d   1     -40.619  29.454 -33.506  0.00  0.00     0.209 HD
ENDBRANCH  27  28
ENDBRANCH   5  27
BRANCH   4  30
ATOM     30  N   SGN d   1     -35.838  29.761 -27.875  0.00  0.00    -0.189 NA
ATOM     31  H   SGN d   1     -35.942  29.091 -27.114  0.00  0.00     0.143 HD
BRANCH  30  32
ATOM     32  S1  SGN d   1     -34.254  29.950 -28.212  0.00  0.00     0.183 S 
ATOM     33  O2S SGN d   1     -33.843  28.987 -29.329  0.00  0.00    -0.582 OA
ATOM     34  O3S SGN d   1     -34.000  31.393 -28.652  0.00  0.00    -0.582 OA
ATOM     35  O1S SGN d   1     -33.429  29.651 -26.959  0.00  0.00    -0.582 OA
ENDBRANCH  30  32
ENDBRANCH   4  30
BRANCH   2  36
ATOM     36  O1  SGN d   1     -36.291  30.508 -30.630  0.00  0.00    -0.369 OA
ATOM     37  H   SGN d   1     -35.414  30.593 -30.225  0.00  0.00     0.212 HD
ENDBRANCH   2  36
TORSDOF 13
ENDMDL
MODEL 25
REMARK VINA RESULT:      -5.1      2.750      6.115
REMARK  13 active torsions:
REMARK  status: ('A' for Active; 'I' for Inactive)
REMARK    1  A    between atoms: C6_1  and  C5_27 
REMARK    2  A    between atoms: C6_1  and  O6_30 
REMARK    3  A    between atoms: O3_2  and  C3_3 
REMARK    4  A    between atoms: C6_4  and  C5_23 
REMARK    5  A    between atoms: C6_4  and  O62_11 
REMARK    6  A    between atoms: C1_6  and  O1_26 
REMARK    7  A    between atoms: C1_7  and  O1_9 
REMARK    8  A    between atoms: O1_9  and  C4_31 
REMARK    9  A    between atoms: C3_10  and  O3_29 
REMARK   10  A    between atoms: S_13  and  O2_22 
REMARK   11  A    between atoms: N_19  and  C2_25 
REMARK   12  A    between atoms: N_19  and  S1_28 
REMARK   13  A    between atoms: C2_20  and  O2_22 
ROOT
ATOM      1  C1  SGN d   1     -36.166  28.973 -32.345  0.00  0.00     0.000 C 
ATOM      2  C2  SGN d   1     -37.232  29.160 -31.278  0.00  0.00     0.000 C 
ATOM      3  C3  SGN d   1     -38.324  28.122 -31.475  0.00  0.00     0.000 C 
ATOM      4  C4  SGN d   1     -38.862  28.201 -32.895  0.00  0.00     0.000 C 
ATOM      5  C5  SGN d   1     -37.711  28.084 -33.881  0.00  0.00     0.000 C 
ATOM      6  O5  SGN d   1     -36.755  29.129 -33.644  0.00  0.00     0.000 OA
ENDROOT
BRANCH   6   7
ATOM      7  O1  SGN d   1     -39.787  27.124 -33.106  0.00  0.00     0.000 OA
BRANCH   7   8
ATOM      8  C1  IDS d   2     -39.665  25.697 -33.032  0.00  0.00     0.000 C 
ATOM      9  C2  IDS d   2     -40.796  25.149 -32.175  0.00  0.00     0.000 C 
ATOM     10  C3  IDS d   2     -40.947  23.660 -32.437  0.00  0.00     0.000 C 
ATOM     11  C4  IDS d   2     -41.406  23.472 -33.874  0.00  0.00     0.000 C 
ATOM     12  C5  IDS d   2     -41.029  24.702 -34.684  0.00  0.00     0.000 C 
ATOM     13  O5  IDS d   2     -39.695  25.104 -34.341  0.00  0.00     0.000 OA
BRANCH   9  14
ATOM     14  O2  IDS d   2     -40.518  25.402 -30.790  0.00  0.00     0.000 OA
BRANCH  14  15
ATOM     15  S   IDS d   2     -41.500  26.054 -29.971  0.00  0.00     0.000 S 
ATOM     16  O3S IDS d   2     -40.836  26.562 -28.689  0.00  0.00     0.000 OA
ATOM     17  O1S IDS d   2     -42.099  27.235 -30.737  0.00  0.00     0.000 OA
ATOM     18  O2S IDS d   2     -42.609  25.064 -29.613  0.00  0.00     0.000 OA
ENDBRANCH  14  15
ENDBRANCH   9  14
BRANCH  10  19
ATOM     19  O3  IDS d   2     -41.935  23.117 -31.547  0.00  0.00     0.000 OA
ATOM     20  H   IDS d   2     -41.525  22.444 -30.983  0.00  0.00     0.000 HD
ENDBRANCH  10  19
BRANCH  12  21
ATOM     21  C6  IDS d   2     -41.090  24.363 -36.175  0.00  0.00     0.000 C 
ATOM     22  O61 IDS d   2     -41.147  25.323 -36.970  0.00  0.00     0.000 OA
BRANCH  21  23
ATOM     23  O62 IDS d   2     -41.053  23.151 -36.484  0.00  0.00     0.000 OA
ENDBRANCH  21  23
ENDBRANCH  12  21
ENDBRANCH   7   8
ENDBRANCH   6   7
BRANCH   1  25
ATOM     25  O3  SGN d   1     -39.392  28.371 -30.549  0.00  0.00    -0.391 OA
ATOM     26  H   SGN d   1     -39.829  29.216 -30.739  0.00  0.00     0.210 HD
ENDBRANCH   1  25
BRANCH   5  27
ATOM     27  C6  SGN d   1     -38.236  28.194 -35.302  0.00  0.00     0.198 C 
BRANCH  27  28
ATOM     28  O6  SGN d   1     -37.139  28.219 -36.219  0.00  0.00    -0.398 OA
ATOM     29  H   SGN d   1     -37.272  28.933 -36.863  0.00  0.00     0.209 HD
ENDBRANCH  27  28
ENDBRANCH   5  27
BRANCH   4  30
ATOM     30  N   SGN d   1     -36.659  29.046 -29.928  0.00  0.00    -0.189 NA
ATOM     31  H   SGN d   1     -37.411  29.531 -29.439  0.00  0.00     0.143 HD
BRANCH  30  32
ATOM     32  S1  SGN d   1     -35.858  28.095 -28.873  0.00  0.00     0.183 S 
ATOM     33  O2S SGN d   1     -34.356  28.373 -28.962  0.00  0.00    -0.582 OA
ATOM     34  O3S SGN d   1     -36.357  28.383 -27.455  0.00  0.00    -0.582 OA
ATOM     35  O1S SGN d   1     -36.122  26.627 -29.212  0.00  0.00    -0.582 OA
ENDBRANCH  30  32
ENDBRANCH   4  30
BRANCH   2  36
ATOM     36  O1  SGN d   1     -35.595  27.660 -32.229  0.00  0.00    -0.369 OA
ATOM     37  H   SGN d   1     -34.945  28.379 -32.217  0.00  0.00     0.212 HD
ENDBRANCH   2  36
TORSDOF 13
ENDMDL
MODEL 26
REMARK VINA RESULT:      -5.1      2.928      6.175
REMARK  13 active torsions:
REMARK  status: ('A' for Active; 'I' for Inactive)
REMARK    1  A    between atoms: C6_1  and  C5_27 
REMARK    2  A    between atoms: C6_1  and  O6_30 
REMARK    3  A    between atoms: O3_2  and  C3_3 
REMARK    4  A    between atoms: C6_4  and  C5_23 
REMARK    5  A    between atoms: C6_4  and  O62_11 
REMARK    6  A    between atoms: C1_6  and  O1_26 
REMARK    7  A    between atoms: C1_7  and  O1_9 
REMARK    8  A    between atoms: O1_9  and  C4_31 
REMARK    9  A    between atoms: C3_10  and  O3_29 
REMARK   10  A    between atoms: S_13  and  O2_22 
REMARK   11  A    between atoms: N_19  and  C2_25 
REMARK   12  A    between atoms: N_19  and  S1_28 
REMARK   13  A    between atoms: C2_20  and  O2_22 
ROOT
ATOM      1  C1  SGN d   1     -36.364  29.815 -32.309  0.00  0.00     0.000 C 
ATOM      2  C2  SGN d   1     -37.798  29.852 -31.809  0.00  0.00     0.000 C 
ATOM      3  C3  SGN d   1     -38.367  28.442 -31.816  0.00  0.00     0.000 C 
ATOM      4  C4  SGN d   1     -38.220  27.833 -33.201  0.00  0.00     0.000 C 
ATOM      5  C5  SGN d   1     -36.767  27.916 -33.641  0.00  0.00     0.000 C 
ATOM      6  O5  SGN d   1     -36.334  29.285 -33.643  0.00  0.00     0.000 OA
ENDROOT
BRANCH   6   7
ATOM      7  O1  SGN d   1     -38.629  26.458 -33.153  0.00  0.00     0.000 OA
BRANCH   7   8
ATOM      8  C1  IDS d   2     -39.362  25.961 -34.281  0.00  0.00     0.000 C 
ATOM      9  C2  IDS d   2     -40.368  24.928 -33.799  0.00  0.00     0.000 C 
ATOM     10  C3  IDS d   2     -41.424  24.720 -34.871  0.00  0.00     0.000 C 
ATOM     11  C4  IDS d   2     -42.215  26.009 -35.019  0.00  0.00     0.000 C 
ATOM     12  C5  IDS d   2     -41.378  27.170 -34.506  0.00  0.00     0.000 C 
ATOM     13  O5  IDS d   2     -40.031  27.027 -34.976  0.00  0.00     0.000 OA
BRANCH   9  14
ATOM     14  O2  IDS d   2     -39.691  23.698 -33.499  0.00  0.00     0.000 OA
BRANCH  14  15
ATOM     15  S   IDS d   2     -39.715  23.176 -32.162  0.00  0.00     0.000 S 
ATOM     16  O3S IDS d   2     -38.572  23.795 -31.355  0.00  0.00     0.000 OA
ATOM     17  O1S IDS d   2     -41.051  23.524 -31.504  0.00  0.00     0.000 OA
ATOM     18  O2S IDS d   2     -39.547  21.656 -32.202  0.00  0.00     0.000 OA
ENDBRANCH  14  15
ENDBRANCH   9  14
BRANCH  10  19
ATOM     19  O3  IDS d   2     -42.309  23.663 -34.470  0.00  0.00     0.000 OA
ATOM     20  H   IDS d   2     -42.373  23.007 -35.181  0.00  0.00     0.000 HD
ENDBRANCH  10  19
BRANCH  12  21
ATOM     21  C6  IDS d   2     -41.963  28.484 -35.029  0.00  0.00     0.000 C 
ATOM     22  O61 IDS d   2     -41.993  29.445 -34.232  0.00  0.00     0.000 OA
BRANCH  21  23
ATOM     23  O62 IDS d   2     -42.342  28.503 -36.221  0.00  0.00     0.000 OA
ENDBRANCH  21  23
ENDBRANCH  12  21
ENDBRANCH   7   8
ENDBRANCH   6   7
BRANCH   1  25
ATOM     25  O3  SGN d   1     -39.757  28.487 -31.463  0.00  0.00    -0.391 OA
ATOM     26  H   SGN d   1     -39.696  27.626 -31.906  0.00  0.00     0.210 HD
ENDBRANCH   1  25
BRANCH   5  27
ATOM     27  C6  SGN d   1     -36.617  27.338 -35.037  0.00  0.00     0.198 C 
BRANCH  27  28
ATOM     28  O6  SGN d   1     -37.232  28.212 -35.988  0.00  0.00    -0.398 OA
ATOM     29  H   SGN d   1     -37.506  29.031 -35.544  0.00  0.00     0.209 HD
ENDBRANCH  27  28
ENDBRANCH   5  27
BRANCH   4  30
ATOM     30  N   SGN d   1     -37.875  30.425 -30.457  0.00  0.00    -0.189 NA
ATOM     31  H   SGN d   1     -38.820  30.781 -30.600  0.00  0.00     0.143 HD
BRANCH  30  32
ATOM     32  S1  SGN d   1     -37.595  30.273 -28.857  0.00  0.00     0.183 S 
ATOM     33  O2S SGN d   1     -36.968  31.561 -28.316  0.00  0.00    -0.582 OA
ATOM     34  O3S SGN d   1     -38.916  29.997 -28.138  0.00  0.00    -0.582 OA
ATOM     35  O1S SGN d   1     -36.636  29.106 -28.619  0.00  0.00    -0.582 OA
ENDBRANCH  30  32
ENDBRANCH   4  30
BRANCH   2  36
ATOM     36  O1  SGN d   1     -35.574  28.983 -31.444  0.00  0.00    -0.369 OA
ATOM     37  H   SGN d   1     -35.469  29.594 -30.699  0.00  0.00     0.212 HD
ENDBRANCH   2  36
TORSDOF 13
ENDMDL
MODEL 27
REMARK VINA RESULT:      -5.0      3.211      5.795
REMARK  13 active torsions:
REMARK  status: ('A' for Active; 'I' for Inactive)
REMARK    1  A    between atoms: C6_1  and  C5_27 
REMARK    2  A    between atoms: C6_1  and  O6_30 
REMARK    3  A    between atoms: O3_2  and  C3_3 
REMARK    4  A    between atoms: C6_4  and  C5_23 
REMARK    5  A    between atoms: C6_4  and  O62_11 
REMARK    6  A    between atoms: C1_6  and  O1_26 
REMARK    7  A    between atoms: C1_7  and  O1_9 
REMARK    8  A    between atoms: O1_9  and  C4_31 
REMARK    9  A    between atoms: C3_10  and  O3_29 
REMARK   10  A    between atoms: S_13  and  O2_22 
REMARK   11  A    between atoms: N_19  and  C2_25 
REMARK   12  A    between atoms: N_19  and  S1_28 
REMARK   13  A    between atoms: C2_20  and  O2_22 
ROOT
ATOM      1  C1  SGN d   1     -41.882  25.417 -30.653  0.00  0.00     0.000 C 
ATOM      2  C2  SGN d   1     -40.986  25.718 -31.842  0.00  0.00     0.000 C 
ATOM      3  C3  SGN d   1     -39.772  26.501 -31.368  0.00  0.00     0.000 C 
ATOM      4  C4  SGN d   1     -40.219  27.741 -30.612  0.00  0.00     0.000 C 
ATOM      5  C5  SGN d   1     -41.171  27.340 -29.497  0.00  0.00     0.000 C 
ATOM      6  O5  SGN d   1     -42.303  26.647 -30.045  0.00  0.00     0.000 OA
ENDROOT
BRANCH   6   7
ATOM      7  O1  SGN d   1     -39.066  28.387 -30.050  0.00  0.00     0.000 OA
BRANCH   7   8
ATOM      8  C1  IDS d   2     -37.887  27.650 -29.701  0.00  0.00     0.000 C 
ATOM      9  C2  IDS d   2     -36.663  28.470 -30.078  0.00  0.00     0.000 C 
ATOM     10  C3  IDS d   2     -35.451  27.929 -29.339  0.00  0.00     0.000 C 
ATOM     11  C4  IDS d   2     -35.651  28.169 -27.851  0.00  0.00     0.000 C 
ATOM     12  C5  IDS d   2     -37.137  28.328 -27.567  0.00  0.00     0.000 C 
ATOM     13  O5  IDS d   2     -37.868  27.334 -28.298  0.00  0.00     0.000 OA
BRANCH   9  14
ATOM     14  O2  IDS d   2     -36.465  28.418 -31.498  0.00  0.00     0.000 OA
BRANCH  14  15
ATOM     15  S   IDS d   2     -36.447  29.632 -32.263  0.00  0.00     0.000 S 
ATOM     16  O3S IDS d   2     -36.610  29.299 -33.748  0.00  0.00     0.000 OA
ATOM     17  O1S IDS d   2     -37.598  30.534 -31.813  0.00  0.00     0.000 OA
ATOM     18  O2S IDS d   2     -35.118  30.355 -32.045  0.00  0.00     0.000 OA
ENDBRANCH  14  15
ENDBRANCH   9  14
BRANCH  10  19
ATOM     19  O3  IDS d   2     -34.274  28.625 -29.779  0.00  0.00     0.000 OA
ATOM     20  H   IDS d   2     -34.418  29.581 -29.707  0.00  0.00     0.000 HD
ENDBRANCH  10  19
BRANCH  12  21
ATOM     21  C6  IDS d   2     -37.386  28.142 -26.069  0.00  0.00     0.000 C 
ATOM     22  O61 IDS d   2     -37.421  29.176 -25.370  0.00  0.00     0.000 OA
BRANCH  21  23
ATOM     23  O62 IDS d   2     -37.561  26.972 -25.662  0.00  0.00     0.000 OA
ENDBRANCH  21  23
ENDBRANCH  12  21
ENDBRANCH   7   8
ENDBRANCH   6   7
BRANCH   1  25
ATOM     25  O3  SGN d   1     -38.985  26.895 -32.502  0.00  0.00    -0.391 OA
ATOM     26  H   SGN d   1     -38.537  26.074 -32.760  0.00  0.00     0.210 HD
ENDBRANCH   1  25
BRANCH   5  27
ATOM     27  C6  SGN d   1     -41.647  28.577 -28.756  0.00  0.00     0.198 C 
BRANCH  27  28
ATOM     28  O6  SGN d   1     -40.687  28.940 -27.759  0.00  0.00    -0.398 OA
ATOM     29  H   SGN d   1     -39.792  28.827 -28.117  0.00  0.00     0.209 HD
ENDBRANCH  27  28
ENDBRANCH   5  27
BRANCH   4  30
ATOM     30  N   SGN d   1     -40.564  24.482 -32.518  0.00  0.00    -0.189 NA
ATOM     31  H   SGN d   1     -40.375  24.925 -33.417  0.00  0.00     0.143 HD
BRANCH  30  32
ATOM     32  S1  SGN d   1     -39.731  23.083 -32.423  0.00  0.00     0.183 S 
ATOM     33  O2S SGN d   1     -39.758  22.560 -30.984  0.00  0.00    -0.582 OA
ATOM     34  O3S SGN d   1     -40.364  22.055 -33.361  0.00  0.00    -0.582 OA
ATOM     35  O1S SGN d   1     -38.281  23.326 -32.845  0.00  0.00    -0.582 OA
ENDBRANCH  30  32
ENDBRANCH   4  30
BRANCH   2  36
ATOM     36  O1  SGN d   1     -41.159  24.630 -29.694  0.00  0.00    -0.369 OA
ATOM     37  H   SGN d   1     -41.673  25.383 -29.365  0.00  0.00     0.212 HD
ENDBRANCH   2  36
TORSDOF 13
ENDMDL
MODEL 28
REMARK VINA RESULT:      -5.0      3.587      6.262
REMARK  13 active torsions:
REMARK  status: ('A' for Active; 'I' for Inactive)
REMARK    1  A    between atoms: C6_1  and  C5_27 
REMARK    2  A    between atoms: C6_1  and  O6_30 
REMARK    3  A    between atoms: O3_2  and  C3_3 
REMARK    4  A    between atoms: C6_4  and  C5_23 
REMARK    5  A    between atoms: C6_4  and  O62_11 
REMARK    6  A    between atoms: C1_6  and  O1_26 
REMARK    7  A    between atoms: C1_7  and  O1_9 
REMARK    8  A    between atoms: O1_9  and  C4_31 
REMARK    9  A    between atoms: C3_10  and  O3_29 
REMARK   10  A    between atoms: S_13  and  O2_22 
REMARK   11  A    between atoms: N_19  and  C2_25 
REMARK   12  A    between atoms: N_19  and  S1_28 
REMARK   13  A    between atoms: C2_20  and  O2_22 
ROOT
ATOM      1  C1  SGN d   1     -40.429  27.041 -31.628  0.00  0.00     0.000 C 
ATOM      2  C2  SGN d   1     -39.238  26.799 -32.541  0.00  0.00     0.000 C 
ATOM      3  C3  SGN d   1     -37.957  27.127 -31.790  0.00  0.00     0.000 C 
ATOM      4  C4  SGN d   1     -38.028  28.544 -31.242  0.00  0.00     0.000 C 
ATOM      5  C5  SGN d   1     -39.291  28.704 -30.412  0.00  0.00     0.000 C 
ATOM      6  O5  SGN d   1     -40.446  28.416 -31.215  0.00  0.00     0.000 OA
ENDROOT
BRANCH   6   7
ATOM      7  O1  SGN d   1     -36.878  28.784 -30.418  0.00  0.00     0.000 OA
BRANCH   7   8
ATOM      8  C1  IDS d   2     -36.299  27.918 -29.432  0.00  0.00     0.000 C 
ATOM      9  C2  IDS d   2     -35.349  28.726 -28.563  0.00  0.00     0.000 C 
ATOM     10  C3  IDS d   2     -35.073  27.962 -27.279  0.00  0.00     0.000 C 
ATOM     11  C4  IDS d   2     -36.366  27.876 -26.486  0.00  0.00     0.000 C 
ATOM     12  C5  IDS d   2     -37.544  28.057 -27.431  0.00  0.00     0.000 C 
ATOM     13  O5  IDS d   2     -37.314  27.297 -28.625  0.00  0.00     0.000 OA
BRANCH   9  14
ATOM     14  O2  IDS d   2     -34.133  28.979 -29.282  0.00  0.00     0.000 OA
BRANCH  14  15
ATOM     15  S   IDS d   2     -33.691  30.330 -29.487  0.00  0.00     0.000 S 
ATOM     16  O3S IDS d   2     -32.161  30.367 -29.502  0.00  0.00     0.000 OA
ATOM     17  O1S IDS d   2     -34.228  30.843 -30.824  0.00  0.00     0.000 OA
ATOM     18  O2S IDS d   2     -34.212  31.217 -28.355  0.00  0.00     0.000 OA
ENDBRANCH  14  15
ENDBRANCH   9  14
BRANCH  10  19
ATOM     19  O3  IDS d   2     -34.087  28.666 -26.507  0.00  0.00     0.000 OA
ATOM     20  H   IDS d   2     -34.500  29.429 -26.075  0.00  0.00     0.000 HD
ENDBRANCH  10  19
BRANCH  12  21
ATOM     21  C6  IDS d   2     -38.819  27.557 -26.748  0.00  0.00     0.000 C 
ATOM     22  O61 IDS d   2     -38.958  27.835 -25.539  0.00  0.00     0.000 OA
BRANCH  21  23
ATOM     23  O62 IDS d   2     -39.637  26.932 -27.459  0.00  0.00     0.000 OA
ENDBRANCH  21  23
ENDBRANCH  12  21
ENDBRANCH   7   8
ENDBRANCH   6   7
BRANCH   1  25
ATOM     25  O3  SGN d   1     -36.839  27.020 -32.683  0.00  0.00    -0.391 OA
ATOM     26  H   SGN d   1     -36.716  26.063 -32.777  0.00  0.00     0.210 HD
ENDBRANCH   1  25
BRANCH   5  27
ATOM     27  C6  SGN d   1     -39.386  30.127 -29.886  0.00  0.00     0.198 C 
BRANCH  27  28
ATOM     28  O6  SGN d   1     -38.852  31.033 -30.856  0.00  0.00    -0.398 OA
ATOM     29  H   SGN d   1     -38.193  31.606 -30.434  0.00  0.00     0.209 HD
ENDBRANCH  27  28
ENDBRANCH   5  27
BRANCH   4  30
ATOM     30  N   SGN d   1     -39.206  25.408 -33.018  0.00  0.00    -0.189 NA
ATOM     31  H   SGN d   1     -38.805  25.697 -33.909  0.00  0.00     0.143 HD
BRANCH  30  32
ATOM     32  S1  SGN d   1     -38.870  23.833 -32.763  0.00  0.00     0.183 S 
ATOM     33  O2S SGN d   1     -39.871  22.960 -33.523  0.00  0.00    -0.582 OA
ATOM     34  O3S SGN d   1     -37.449  23.536 -33.247  0.00  0.00    -0.582 OA
ATOM     35  O1S SGN d   1     -38.968  23.528 -31.267  0.00  0.00    -0.582 OA
ENDBRANCH  30  32
ENDBRANCH   4  30
BRANCH   2  36
ATOM     36  O1  SGN d   1     -40.329  26.193 -30.473  0.00  0.00    -0.369 OA
ATOM     37  H   SGN d   1     -40.337  25.267 -30.761  0.00  0.00     0.212 HD
ENDBRANCH   2  36
TORSDOF 13
ENDMDL
MODEL 29
REMARK VINA RESULT:      -5.0      3.435      6.167
REMARK  13 active torsions:
REMARK  status: ('A' for Active; 'I' for Inactive)
REMARK    1  A    between atoms: C6_1  and  C5_27 
REMARK    2  A    between atoms: C6_1  and  O6_30 
REMARK    3  A    between atoms: O3_2  and  C3_3 
REMARK    4  A    between atoms: C6_4  and  C5_23 
REMARK    5  A    between atoms: C6_4  and  O62_11 
REMARK    6  A    between atoms: C1_6  and  O1_26 
REMARK    7  A    between atoms: C1_7  and  O1_9 
REMARK    8  A    between atoms: O1_9  and  C4_31 
REMARK    9  A    between atoms: C3_10  and  O3_29 
REMARK   10  A    between atoms: S_13  and  O2_22 
REMARK   11  A    between atoms: N_19  and  C2_25 
REMARK   12  A    between atoms: N_19  and  S1_28 
REMARK   13  A    between atoms: C2_20  and  O2_22 
ROOT
ATOM      1  C1  SGN d   1     -37.678  26.442 -33.775  0.00  0.00     0.000 C 
ATOM      2  C2  SGN d   1     -37.049  25.551 -32.715  0.00  0.00     0.000 C 
ATOM      3  C3  SGN d   1     -37.075  26.272 -31.377  0.00  0.00     0.000 C 
ATOM      4  C4  SGN d   1     -36.405  27.630 -31.508  0.00  0.00     0.000 C 
ATOM      5  C5  SGN d   1     -37.052  28.408 -32.642  0.00  0.00     0.000 C 
ATOM      6  O5  SGN d   1     -36.941  27.670 -33.869  0.00  0.00     0.000 OA
ENDROOT
BRANCH   6   7
ATOM      7  O1  SGN d   1     -36.566  28.352 -30.278  0.00  0.00     0.000 OA
BRANCH   7   8
ATOM      8  C1  IDS d   2     -36.980  29.628 -29.772  0.00  0.00     0.000 C 
ATOM      9  C2  IDS d   2     -38.310  29.465 -29.053  0.00  0.00     0.000 C 
ATOM     10  C3  IDS d   2     -38.545  30.668 -28.155  0.00  0.00     0.000 C 
ATOM     11  C4  IDS d   2     -37.493  30.658 -27.058  0.00  0.00     0.000 C 
ATOM     12  C5  IDS d   2     -36.295  29.846 -27.523  0.00  0.00     0.000 C 
ATOM     13  O5  IDS d   2     -35.994  30.181 -28.884  0.00  0.00     0.000 OA
BRANCH   9  14
ATOM     14  O2  IDS d   2     -39.366  29.327 -30.015  0.00  0.00     0.000 OA
BRANCH  14  15
ATOM     15  S   IDS d   2     -40.258  28.205 -29.943  0.00  0.00     0.000 S 
ATOM     16  O3S IDS d   2     -39.593  27.077 -29.151  0.00  0.00     0.000 OA
ATOM     17  O1S IDS d   2     -41.551  28.627 -29.242  0.00  0.00     0.000 OA
ATOM     18  O2S IDS d   2     -40.582  27.716 -31.355  0.00  0.00     0.000 OA
ENDBRANCH  14  15
ENDBRANCH   9  14
BRANCH  10  19
ATOM     19  O3  IDS d   2     -39.850  30.574 -27.563  0.00  0.00     0.000 OA
ATOM     20  H   IDS d   2     -39.774  30.649 -26.600  0.00  0.00     0.000 HD
ENDBRANCH  10  19
BRANCH  12  21
ATOM     21  C6  IDS d   2     -35.089  30.175 -26.640  0.00  0.00     0.000 C 
ATOM     22  O61 IDS d   2     -33.960  29.932 -27.113  0.00  0.00     0.000 OA
BRANCH  21  23
ATOM     23  O62 IDS d   2     -35.325  30.686 -25.522  0.00  0.00     0.000 OA
ENDBRANCH  21  23
ENDBRANCH  12  21
ENDBRANCH   7   8
ENDBRANCH   6   7
BRANCH   1  25
ATOM     25  O3  SGN d   1     -36.372  25.489 -30.400  0.00  0.00    -0.391 OA
ATOM     26  H   SGN d   1     -36.828  26.160 -29.869  0.00  0.00     0.210 HD
ENDBRANCH   1  25
BRANCH   5  27
ATOM     27  C6  SGN d   1     -36.368  29.755 -32.801  0.00  0.00     0.198 C 
BRANCH  27  28
ATOM     28  O6  SGN d   1     -37.333  30.744 -33.169  0.00  0.00    -0.398 OA
ATOM     29  H   SGN d   1     -38.203  30.491 -32.821  0.00  0.00     0.209 HD
ENDBRANCH  27  28
ENDBRANCH   5  27
BRANCH   4  30
ATOM     30  N   SGN d   1     -37.754  24.264 -32.615  0.00  0.00    -0.189 NA
ATOM     31  H   SGN d   1     -37.099  23.748 -32.028  0.00  0.00     0.143 HD
BRANCH  30  32
ATOM     32  S1  SGN d   1     -39.236  23.598 -32.480  0.00  0.00     0.183 S 
ATOM     33  O2S SGN d   1     -40.041  24.340 -31.410  0.00  0.00    -0.582 OA
ATOM     34  O3S SGN d   1     -39.955  23.690 -33.827  0.00  0.00    -0.582 OA
ATOM     35  O1S SGN d   1     -39.098  22.128 -32.080  0.00  0.00    -0.582 OA
ENDBRANCH  30  32
ENDBRANCH   4  30
BRANCH   2  36
ATOM     36  O1  SGN d   1     -39.040  26.724 -33.417  0.00  0.00    -0.369 OA
ATOM     37  H   SGN d   1     -38.887  26.419 -34.325  0.00  0.00     0.212 HD
ENDBRANCH   2  36
TORSDOF 13
ENDMDL
MODEL 30
REMARK VINA RESULT:      -5.0      5.526      8.558
REMARK  13 active torsions:
REMARK  status: ('A' for Active; 'I' for Inactive)
REMARK    1  A    between atoms: C6_1  and  C5_27 
REMARK    2  A    between atoms: C6_1  and  O6_30 
REMARK    3  A    between atoms: O3_2  and  C3_3 
REMARK    4  A    between atoms: C6_4  and  C5_23 
REMARK    5  A    between atoms: C6_4  and  O62_11 
REMARK    6  A    between atoms: C1_6  and  O1_26 
REMARK    7  A    between atoms: C1_7  and  O1_9 
REMARK    8  A    between atoms: O1_9  and  C4_31 
REMARK    9  A    between atoms: C3_10  and  O3_29 
REMARK   10  A    between atoms: S_13  and  O2_22 
REMARK   11  A    between atoms: N_19  and  C2_25 
REMARK   12  A    between atoms: N_19  and  S1_28 
REMARK   13  A    between atoms: C2_20  and  O2_22 
ROOT
ATOM      1  C1  SGN d   1     -37.447  26.795 -30.993  0.00  0.00     0.000 C 
ATOM      2  C2  SGN d   1     -36.656  27.905 -31.665  0.00  0.00     0.000 C 
ATOM      3  C3  SGN d   1     -35.504  28.315 -30.763  0.00  0.00     0.000 C 
ATOM      4  C4  SGN d   1     -36.031  28.690 -29.388  0.00  0.00     0.000 C 
ATOM      5  C5  SGN d   1     -36.872  27.548 -28.838  0.00  0.00     0.000 C 
ATOM      6  O5  SGN d   1     -37.957  27.263 -29.735  0.00  0.00     0.000 OA
ENDROOT
BRANCH   6   7
ATOM      7  O1  SGN d   1     -34.921  28.933 -28.511  0.00  0.00     0.000 OA
BRANCH   7   8
ATOM      8  C1  IDS d   2     -35.009  30.302 -28.091  0.00  0.00     0.000 C 
ATOM      9  C2  IDS d   2     -34.240  30.469 -26.790  0.00  0.00     0.000 C 
ATOM     10  C3  IDS d   2     -33.951  31.944 -26.565  0.00  0.00     0.000 C 
ATOM     11  C4  IDS d   2     -33.003  32.417 -27.655  0.00  0.00     0.000 C 
ATOM     12  C5  IDS d   2     -33.111  31.484 -28.851  0.00  0.00     0.000 C 
ATOM     13  O5  IDS d   2     -34.493  31.189 -29.098  0.00  0.00     0.000 OA
BRANCH   9  14
ATOM     14  O2  IDS d   2     -35.003  29.923 -25.704  0.00  0.00     0.000 OA
BRANCH  14  15
ATOM     15  S   IDS d   2     -34.412  28.946 -24.835  0.00  0.00     0.000 S 
ATOM     16  O3S IDS d   2     -35.493  28.351 -23.929  0.00  0.00     0.000 OA
ATOM     17  O1S IDS d   2     -33.781  27.834 -25.674  0.00  0.00     0.000 OA
ATOM     18  O2S IDS d   2     -33.334  29.609 -23.976  0.00  0.00     0.000 OA
ENDBRANCH  14  15
ENDBRANCH   9  14
BRANCH  10  19
ATOM     19  O3  IDS d   2     -33.328  32.118 -25.284  0.00  0.00     0.000 OA
ATOM     20  H   IDS d   2     -32.374  31.967 -25.365  0.00  0.00     0.000 HD
ENDBRANCH  10  19
BRANCH  12  21
ATOM     21  C6  IDS d   2     -32.509  32.168 -30.080  0.00  0.00     0.000 C 
ATOM     22  O61 IDS d   2     -31.620  33.019 -29.873  0.00  0.00     0.000 OA
BRANCH  21  23
ATOM     23  O62 IDS d   2     -32.935  31.803 -31.199  0.00  0.00     0.000 OA
ENDBRANCH  21  23
ENDBRANCH  12  21
ENDBRANCH   7   8
ENDBRANCH   6   7
BRANCH   1  25
ATOM     25  O3  SGN d   1     -34.827  29.444 -31.335  0.00  0.00    -0.391 OA
ATOM     26  H   SGN d   1     -34.755  29.458 -32.302  0.00  0.00     0.210 HD
ENDBRANCH   1  25
BRANCH   5  27
ATOM     27  C6  SGN d   1     -37.430  27.927 -27.477  0.00  0.00     0.198 C 
BRANCH  27  28
ATOM     28  O6  SGN d   1     -36.619  27.352 -26.449  0.00  0.00    -0.398 OA
ATOM     29  H   SGN d   1     -35.682  27.470 -26.672  0.00  0.00     0.209 HD
ENDBRANCH  27  28
ENDBRANCH   5  27
BRANCH   4  30
ATOM     30  N   SGN d   1     -36.149  27.477 -32.978  0.00  0.00    -0.189 NA
ATOM     31  H   SGN d   1     -36.155  26.495 -32.702  0.00  0.00     0.143 HD
BRANCH  30  32
ATOM     32  S1  SGN d   1     -37.247  27.710 -34.160  0.00  0.00     0.183 S 
ATOM     33  O2S SGN d   1     -36.534  28.069 -35.466  0.00  0.00    -0.582 OA
ATOM     34  O3S SGN d   1     -38.064  26.431 -34.349  0.00  0.00    -0.582 OA
ATOM     35  O1S SGN d   1     -38.183  28.853 -33.765  0.00  0.00    -0.582 OA
ENDBRANCH  30  32
ENDBRANCH   4  30
BRANCH   2  36
ATOM     36  O1  SGN d   1     -36.594  25.661 -30.774  0.00  0.00    -0.369 OA
ATOM     37  H   SGN d   1     -37.035  25.342 -31.577  0.00  0.00     0.212 HD
ENDBRANCH   2  36
TORSDOF 13
ENDMDL
MODEL 31
REMARK VINA RESULT:      -5.0      3.613      7.378
REMARK  13 active torsions:
REMARK  status: ('A' for Active; 'I' for Inactive)
REMARK    1  A    between atoms: C6_1  and  C5_27 
REMARK    2  A    between atoms: C6_1  and  O6_30 
REMARK    3  A    between atoms: O3_2  and  C3_3 
REMARK    4  A    between atoms: C6_4  and  C5_23 
REMARK    5  A    between atoms: C6_4  and  O62_11 
REMARK    6  A    between atoms: C1_6  and  O1_26 
REMARK    7  A    between atoms: C1_7  and  O1_9 
REMARK    8  A    between atoms: O1_9  and  C4_31 
REMARK    9  A    between atoms: C3_10  and  O3_29 
REMARK   10  A    between atoms: S_13  and  O2_22 
REMARK   11  A    between atoms: N_19  and  C2_25 
REMARK   12  A    between atoms: N_19  and  S1_28 
REMARK   13  A    between atoms: C2_20  and  O2_22 
ROOT
ATOM      1  C1  SGN d   1     -36.070  30.350 -30.007  0.00  0.00     0.000 C 
ATOM      2  C2  SGN d   1     -35.735  29.286 -28.975  0.00  0.00     0.000 C 
ATOM      3  C3  SGN d   1     -36.195  27.931 -29.487  0.00  0.00     0.000 C 
ATOM      4  C4  SGN d   1     -37.671  27.988 -29.847  0.00  0.00     0.000 C 
ATOM      5  C5  SGN d   1     -37.913  29.132 -30.819  0.00  0.00     0.000 C 
ATOM      6  O5  SGN d   1     -37.487  30.371 -30.232  0.00  0.00     0.000 OA
ENDROOT
BRANCH   6   7
ATOM      7  O1  SGN d   1     -38.052  26.747 -30.461  0.00  0.00     0.000 OA
BRANCH   7   8
ATOM      8  C1  IDS d   2     -37.388  26.011 -31.497  0.00  0.00     0.000 C 
ATOM      9  C2  IDS d   2     -38.415  25.167 -32.237  0.00  0.00     0.000 C 
ATOM     10  C3  IDS d   2     -37.837  24.736 -33.574  0.00  0.00     0.000 C 
ATOM     11  C4  IDS d   2     -37.642  25.974 -34.433  0.00  0.00     0.000 C 
ATOM     12  C5  IDS d   2     -37.546  27.196 -33.533  0.00  0.00     0.000 C 
ATOM     13  O5  IDS d   2     -36.710  26.892 -32.408  0.00  0.00     0.000 OA
BRANCH   9  14
ATOM     14  O2  IDS d   2     -38.771  24.029 -31.439  0.00  0.00     0.000 OA
BRANCH  14  15
ATOM     15  S   IDS d   2     -40.153  23.726 -31.202  0.00  0.00     0.000 S 
ATOM     16  O3S IDS d   2     -40.851  24.956 -30.617  0.00  0.00     0.000 OA
ATOM     17  O1S IDS d   2     -40.822  23.339 -32.523  0.00  0.00     0.000 OA
ATOM     18  O2S IDS d   2     -40.261  22.561 -30.217  0.00  0.00     0.000 OA
ENDBRANCH  14  15
ENDBRANCH   9  14
BRANCH  10  19
ATOM     19  O3  IDS d   2     -38.757  23.845 -34.226  0.00  0.00     0.000 OA
ATOM     20  H   IDS d   2     -39.292  24.343 -34.863  0.00  0.00     0.000 HD
ENDBRANCH  10  19
BRANCH  12  21
ATOM     21  C6  IDS d   2     -36.936  28.357 -34.321  0.00  0.00     0.000 C 
ATOM     22  O61 IDS d   2     -36.733  28.167 -35.539  0.00  0.00     0.000 OA
BRANCH  21  23
ATOM     23  O62 IDS d   2     -36.710  29.415 -33.693  0.00  0.00     0.000 OA
ENDBRANCH  21  23
ENDBRANCH  12  21
ENDBRANCH   7   8
ENDBRANCH   6   7
BRANCH   1  25
ATOM     25  O3  SGN d   1     -35.995  26.941 -28.467  0.00  0.00    -0.391 OA
ATOM     26  H   SGN d   1     -36.722  27.047 -27.834  0.00  0.00     0.210 HD
ENDBRANCH   1  25
BRANCH   5  27
ATOM     27  C6  SGN d   1     -39.391  29.216 -31.159  0.00  0.00     0.198 C 
BRANCH  27  28
ATOM     28  O6  SGN d   1     -40.157  28.578 -30.133  0.00  0.00    -0.398 OA
ATOM     29  H   SGN d   1     -41.098  28.606 -30.368  0.00  0.00     0.209 HD
ENDBRANCH  27  28
ENDBRANCH   5  27
BRANCH   4  30
ATOM     30  N   SGN d   1     -34.293  29.258 -28.687  0.00  0.00    -0.189 NA
ATOM     31  H   SGN d   1     -34.228  29.938 -29.445  0.00  0.00     0.143 HD
BRANCH  30  32
ATOM     32  S1  SGN d   1     -33.825  29.962 -27.292  0.00  0.00     0.183 S 
ATOM     33  O2S SGN d   1     -33.652  28.897 -26.207  0.00  0.00    -0.582 OA
ATOM     34  O3S SGN d   1     -32.502  30.695 -27.517  0.00  0.00    -0.582 OA
ATOM     35  O1S SGN d   1     -34.890  30.966 -26.849  0.00  0.00    -0.582 OA
ENDBRANCH  30  32
ENDBRANCH   4  30
BRANCH   2  36
ATOM     36  O1  SGN d   1     -35.392  30.056 -31.238  0.00  0.00    -0.369 OA
ATOM     37  H   SGN d   1     -36.350  30.165 -31.335  0.00  0.00     0.212 HD
ENDBRANCH   2  36
TORSDOF 13
ENDMDL
MODEL 32
REMARK VINA RESULT:      -5.0      3.511      6.242
REMARK  13 active torsions:
REMARK  status: ('A' for Active; 'I' for Inactive)
REMARK    1  A    between atoms: C6_1  and  C5_27 
REMARK    2  A    between atoms: C6_1  and  O6_30 
REMARK    3  A    between atoms: O3_2  and  C3_3 
REMARK    4  A    between atoms: C6_4  and  C5_23 
REMARK    5  A    between atoms: C6_4  and  O62_11 
REMARK    6  A    between atoms: C1_6  and  O1_26 
REMARK    7  A    between atoms: C1_7  and  O1_9 
REMARK    8  A    between atoms: O1_9  and  C4_31 
REMARK    9  A    between atoms: C3_10  and  O3_29 
REMARK   10  A    between atoms: S_13  and  O2_22 
REMARK   11  A    between atoms: N_19  and  C2_25 
REMARK   12  A    between atoms: N_19  and  S1_28 
REMARK   13  A    between atoms: C2_20  and  O2_22 
ROOT
ATOM      1  C1  SGN d   1     -37.060  29.237 -27.955  0.00  0.00     0.000 C 
ATOM      2  C2  SGN d   1     -38.381  28.775 -28.548  0.00  0.00     0.000 C 
ATOM      3  C3  SGN d   1     -38.139  27.550 -29.414  0.00  0.00     0.000 C 
ATOM      4  C4  SGN d   1     -37.077  27.856 -30.458  0.00  0.00     0.000 C 
ATOM      5  C5  SGN d   1     -35.828  28.385 -29.770  0.00  0.00     0.000 C 
ATOM      6  O5  SGN d   1     -36.147  29.562 -29.013  0.00  0.00     0.000 OA
ENDROOT
BRANCH   6   7
ATOM      7  O1  SGN d   1     -36.759  26.651 -31.170  0.00  0.00     0.000 OA
BRANCH   7   8
ATOM      8  C1  IDS d   2     -36.787  26.840 -32.592  0.00  0.00     0.000 C 
ATOM      9  C2  IDS d   2     -38.096  26.291 -33.137  0.00  0.00     0.000 C 
ATOM     10  C3  IDS d   2     -38.338  26.859 -34.524  0.00  0.00     0.000 C 
ATOM     11  C4  IDS d   2     -38.556  28.358 -34.396  0.00  0.00     0.000 C 
ATOM     12  C5  IDS d   2     -37.929  28.844 -33.099  0.00  0.00     0.000 C 
ATOM     13  O5  IDS d   2     -36.643  28.229 -32.934  0.00  0.00     0.000 OA
BRANCH   9  14
ATOM     14  O2  IDS d   2     -38.041  24.857 -33.170  0.00  0.00     0.000 OA
BRANCH  14  15
ATOM     15  S   IDS d   2     -39.116  24.086 -32.612  0.00  0.00     0.000 S 
ATOM     16  O3S IDS d   2     -39.652  24.792 -31.365  0.00  0.00     0.000 OA
ATOM     17  O1S IDS d   2     -40.236  23.954 -33.645  0.00  0.00     0.000 OA
ATOM     18  O2S IDS d   2     -38.606  22.695 -32.233  0.00  0.00     0.000 OA
ENDBRANCH  14  15
ENDBRANCH   9  14
BRANCH  10  19
ATOM     19  O3  IDS d   2     -39.512  26.255 -35.089  0.00  0.00     0.000 OA
ATOM     20  H   IDS d   2     -39.814  25.535 -34.514  0.00  0.00     0.000 HD
ENDBRANCH  10  19
BRANCH  12  21
ATOM     21  C6  IDS d   2     -37.761  30.364 -33.158  0.00  0.00     0.000 C 
ATOM     22  O61 IDS d   2     -36.607  30.797 -33.358  0.00  0.00     0.000 OA
BRANCH  21  23
ATOM     23  O62 IDS d   2     -38.795  31.056 -33.028  0.00  0.00     0.000 OA
ENDBRANCH  21  23
ENDBRANCH  12  21
ENDBRANCH   7   8
ENDBRANCH   6   7
BRANCH   1  25
ATOM     25  O3  SGN d   1     -39.360  27.183 -30.075  0.00  0.00    -0.391 OA
ATOM     26  H   SGN d   1     -39.316  26.350 -29.579  0.00  0.00     0.210 HD
ENDBRANCH   1  25
BRANCH   5  27
ATOM     27  C6  SGN d   1     -34.772  28.723 -30.809  0.00  0.00     0.198 C 
BRANCH  27  28
ATOM     28  O6  SGN d   1     -34.894  30.097 -31.187  0.00  0.00    -0.398 OA
ATOM     29  H   SGN d   1     -34.017  30.512 -31.188  0.00  0.00     0.209 HD
ENDBRANCH  27  28
ENDBRANCH   5  27
BRANCH   4  30
ATOM     30  N   SGN d   1     -39.359  28.468 -27.493  0.00  0.00    -0.189 NA
ATOM     31  H   SGN d   1     -40.102  28.853 -28.076  0.00  0.00     0.143 HD
BRANCH  30  32
ATOM     32  S1  SGN d   1     -40.009  27.444 -26.402  0.00  0.00     0.183 S 
ATOM     33  O2S SGN d   1     -41.092  28.165 -25.597  0.00  0.00    -0.582 OA
ATOM     34  O3S SGN d   1     -40.616  26.246 -27.134  0.00  0.00    -0.582 OA
ATOM     35  O1S SGN d   1     -38.915  26.954 -25.452  0.00  0.00    -0.582 OA
ENDBRANCH  30  32
ENDBRANCH   4  30
BRANCH   2  36
ATOM     36  O1  SGN d   1     -36.504  28.189 -27.146  0.00  0.00    -0.369 OA
ATOM     37  H   SGN d   1     -36.005  28.930 -27.522  0.00  0.00     0.212 HD
ENDBRANCH   2  36
TORSDOF 13
ENDMDL
MODEL 33
REMARK VINA RESULT:      -5.0      2.806      4.859
REMARK  13 active torsions:
REMARK  status: ('A' for Active; 'I' for Inactive)
REMARK    1  A    between atoms: C6_1  and  C5_27 
REMARK    2  A    between atoms: C6_1  and  O6_30 
REMARK    3  A    between atoms: O3_2  and  C3_3 
REMARK    4  A    between atoms: C6_4  and  C5_23 
REMARK    5  A    between atoms: C6_4  and  O62_11 
REMARK    6  A    between atoms: C1_6  and  O1_26 
REMARK    7  A    between atoms: C1_7  and  O1_9 
REMARK    8  A    between atoms: O1_9  and  C4_31 
REMARK    9  A    between atoms: C3_10  and  O3_29 
REMARK   10  A    between atoms: S_13  and  O2_22 
REMARK   11  A    between atoms: N_19  and  C2_25 
REMARK   12  A    between atoms: N_19  and  S1_28 
REMARK   13  A    between atoms: C2_20  and  O2_22 
ROOT
ATOM      1  C1  SGN d   1     -37.838  24.116 -33.582  0.00  0.00     0.000 C 
ATOM      2  C2  SGN d   1     -38.847  23.761 -32.503  0.00  0.00     0.000 C 
ATOM      3  C3  SGN d   1     -39.660  24.997 -32.153  0.00  0.00     0.000 C 
ATOM      4  C4  SGN d   1     -38.730  26.136 -31.768  0.00  0.00     0.000 C 
ATOM      5  C5  SGN d   1     -37.712  26.357 -32.876  0.00  0.00     0.000 C 
ATOM      6  O5  SGN d   1     -36.967  25.152 -33.104  0.00  0.00     0.000 OA
ENDROOT
BRANCH   6   7
ATOM      7  O1  SGN d   1     -39.504  27.330 -31.582  0.00  0.00     0.000 OA
BRANCH   7   8
ATOM      8  C1  IDS d   2     -39.236  27.907 -30.297  0.00  0.00     0.000 C 
ATOM      9  C2  IDS d   2     -39.912  29.267 -30.216  0.00  0.00     0.000 C 
ATOM     10  C3  IDS d   2     -40.015  29.689 -28.760  0.00  0.00     0.000 C 
ATOM     11  C4  IDS d   2     -40.957  28.730 -28.050  0.00  0.00     0.000 C 
ATOM     12  C5  IDS d   2     -41.021  27.425 -28.828  0.00  0.00     0.000 C 
ATOM     13  O5  IDS d   2     -39.697  27.052 -29.237  0.00  0.00     0.000 OA
BRANCH   9  14
ATOM     14  O2  IDS d   2     -39.162  30.225 -30.977  0.00  0.00     0.000 OA
BRANCH  14  15
ATOM     15  S   IDS d   2     -39.809  30.982 -32.010  0.00  0.00     0.000 S 
ATOM     16  O3S IDS d   2     -40.251  32.335 -31.448  0.00  0.00     0.000 OA
ATOM     17  O1S IDS d   2     -38.833  31.204 -33.167  0.00  0.00     0.000 OA
ATOM     18  O2S IDS d   2     -41.032  30.216 -32.517  0.00  0.00     0.000 OA
ENDBRANCH  14  15
ENDBRANCH   9  14
BRANCH  10  19
ATOM     19  O3  IDS d   2     -40.547  31.020 -28.686  0.00  0.00     0.000 OA
ATOM     20  H   IDS d   2     -41.237  31.131 -29.358  0.00  0.00     0.000 HD
ENDBRANCH  10  19
BRANCH  12  21
ATOM     21  C6  IDS d   2     -41.602  26.331 -27.930  0.00  0.00     0.000 C 
ATOM     22  O61 IDS d   2     -42.184  26.704 -26.890  0.00  0.00     0.000 OA
BRANCH  21  23
ATOM     23  O62 IDS d   2     -41.474  25.148 -28.318  0.00  0.00     0.000 OA
ENDBRANCH  21  23
ENDBRANCH  12  21
ENDBRANCH   7   8
ENDBRANCH   6   7
BRANCH   1  25
ATOM     25  O3  SGN d   1     -40.528  24.701 -31.049  0.00  0.00    -0.391 OA
ATOM     26  H   SGN d   1     -41.183  24.066 -31.378  0.00  0.00     0.210 HD
ENDBRANCH   1  25
BRANCH   5  27
ATOM     27  C6  SGN d   1     -36.759  27.473 -32.486  0.00  0.00     0.198 C 
BRANCH  27  28
ATOM     28  O6  SGN d   1     -37.246  28.720 -32.991  0.00  0.00    -0.398 OA
ATOM     29  H   SGN d   1     -36.709  28.992 -33.752  0.00  0.00     0.209 HD
ENDBRANCH  27  28
ENDBRANCH   5  27
BRANCH   4  30
ATOM     30  N   SGN d   1     -39.735  22.674 -32.940  0.00  0.00    -0.189 NA
ATOM     31  H   SGN d   1     -39.767  22.303 -31.991  0.00  0.00     0.143 HD
BRANCH  30  32
ATOM     32  S1  SGN d   1     -41.041  22.151 -33.766  0.00  0.00     0.183 S 
ATOM     33  O2S SGN d   1     -42.301  22.344 -32.918  0.00  0.00    -0.582 OA
ATOM     34  O3S SGN d   1     -41.164  22.943 -35.068  0.00  0.00    -0.582 OA
ATOM     35  O1S SGN d   1     -40.874  20.666 -34.091  0.00  0.00    -0.582 OA
ENDBRANCH  30  32
ENDBRANCH   4  30
BRANCH   2  36
ATOM     36  O1  SGN d   1     -38.529  24.572 -34.755  0.00  0.00    -0.369 OA
ATOM     37  H   SGN d   1     -39.465  24.393 -34.940  0.00  0.00     0.212 HD
ENDBRANCH   2  36
TORSDOF 13
ENDMDL
MODEL 34
REMARK VINA RESULT:      -4.9      2.539      4.409
REMARK  13 active torsions:
REMARK  status: ('A' for Active; 'I' for Inactive)
REMARK    1  A    between atoms: C6_1  and  C5_27 
REMARK    2  A    between atoms: C6_1  and  O6_30 
REMARK    3  A    between atoms: O3_2  and  C3_3 
REMARK    4  A    between atoms: C6_4  and  C5_23 
REMARK    5  A    between atoms: C6_4  and  O62_11 
REMARK    6  A    between atoms: C1_6  and  O1_26 
REMARK    7  A    between atoms: C1_7  and  O1_9 
REMARK    8  A    between atoms: O1_9  and  C4_31 
REMARK    9  A    between atoms: C3_10  and  O3_29 
REMARK   10  A    between atoms: S_13  and  O2_22 
REMARK   11  A    between atoms: N_19  and  C2_25 
REMARK   12  A    between atoms: N_19  and  S1_28 
REMARK   13  A    between atoms: C2_20  and  O2_22 
ROOT
ATOM      1  C1  SGN d   1     -40.466  24.768 -34.506  0.00  0.00     0.000 C 
ATOM      2  C2  SGN d   1     -39.239  24.106 -33.900  0.00  0.00     0.000 C 
ATOM      3  C3  SGN d   1     -38.562  25.081 -32.951  0.00  0.00     0.000 C 
ATOM      4  C4  SGN d   1     -38.257  26.381 -33.677  0.00  0.00     0.000 C 
ATOM      5  C5  SGN d   1     -39.529  26.918 -34.313  0.00  0.00     0.000 C 
ATOM      6  O5  SGN d   1     -40.070  25.947 -35.222  0.00  0.00     0.000 OA
ENDROOT
BRANCH   6   7
ATOM      7  O1  SGN d   1     -37.752  27.337 -32.733  0.00  0.00     0.000 OA
BRANCH   7   8
ATOM      8  C1  IDS d   2     -37.926  28.697 -32.313  0.00  0.00     0.000 C 
ATOM      9  C2  IDS d   2     -38.765  28.718 -31.044  0.00  0.00     0.000 C 
ATOM     10  C3  IDS d   2     -38.597  30.060 -30.354  0.00  0.00     0.000 C 
ATOM     11  C4  IDS d   2     -37.156  30.178 -29.883  0.00  0.00     0.000 C 
ATOM     12  C5  IDS d   2     -36.284  29.244 -30.707  0.00  0.00     0.000 C 
ATOM     13  O5  IDS d   2     -36.660  29.339 -32.088  0.00  0.00     0.000 OA
BRANCH   9  14
ATOM     14  O2  IDS d   2     -40.142  28.477 -31.372  0.00  0.00     0.000 OA
BRANCH  14  15
ATOM     15  S   IDS d   2     -40.890  27.495 -30.639  0.00  0.00     0.000 S 
ATOM     16  O3S IDS d   2     -41.995  26.928 -31.532  0.00  0.00     0.000 OA
ATOM     17  O1S IDS d   2     -39.956  26.365 -30.202  0.00  0.00     0.000 OA
ATOM     18  O2S IDS d   2     -41.515  28.145 -29.404  0.00  0.00     0.000 OA
ENDBRANCH  14  15
ENDBRANCH   9  14
BRANCH  10  19
ATOM     19  O3  IDS d   2     -39.474  30.127 -29.220  0.00  0.00     0.000 OA
ATOM     20  H   IDS d   2     -39.616  31.054 -28.974  0.00  0.00     0.000 HD
ENDBRANCH  10  19
BRANCH  12  21
ATOM     21  C6  IDS d   2     -34.818  29.654 -30.550  0.00  0.00     0.000 C 
ATOM     22  O61 IDS d   2     -34.479  30.744 -31.056  0.00  0.00     0.000 OA
BRANCH  21  23
ATOM     23  O62 IDS d   2     -34.076  28.879 -29.905  0.00  0.00     0.000 OA
ENDBRANCH  21  23
ENDBRANCH  12  21
ENDBRANCH   7   8
ENDBRANCH   6   7
BRANCH   1  25
ATOM     25  O3  SGN d   1     -37.337  24.508 -32.471  0.00  0.00    -0.391 OA
ATOM     26  H   SGN d   1     -37.407  23.577 -32.207  0.00  0.00     0.210 HD
ENDBRANCH   1  25
BRANCH   5  27
ATOM     27  C6  SGN d   1     -39.227  28.201 -35.068  0.00  0.00     0.198 C 
BRANCH  27  28
ATOM     28  O6  SGN d   1     -37.974  28.075 -35.747  0.00  0.00    -0.398 OA
ATOM     29  H   SGN d   1     -38.018  27.333 -36.371  0.00  0.00     0.209 HD
ENDBRANCH  27  28
ENDBRANCH   5  27
BRANCH   4  30
ATOM     30  N   SGN d   1     -39.599  22.869 -33.189  0.00  0.00    -0.189 NA
ATOM     31  H   SGN d   1     -38.680  22.444 -33.309  0.00  0.00     0.143 HD
BRANCH  30  32
ATOM     32  S1  SGN d   1     -40.354  22.169 -31.924  0.00  0.00     0.183 S 
ATOM     33  O2S SGN d   1     -40.002  22.913 -30.634  0.00  0.00    -0.582 OA
ATOM     34  O3S SGN d   1     -41.866  22.212 -32.153  0.00  0.00    -0.582 OA
ATOM     35  O1S SGN d   1     -39.901  20.712 -31.807  0.00  0.00    -0.582 OA
ENDBRANCH  30  32
ENDBRANCH   4  30
BRANCH   2  36
ATOM     36  O1  SGN d   1     -41.385  25.124 -33.462  0.00  0.00    -0.369 OA
ATOM     37  H   SGN d   1     -41.291  25.645 -34.275  0.00  0.00     0.212 HD
ENDBRANCH   2  36
TORSDOF 13
ENDMDL
MODEL 35
REMARK VINA RESULT:      -4.9      3.602      7.432
REMARK  13 active torsions:
REMARK  status: ('A' for Active; 'I' for Inactive)
REMARK    1  A    between atoms: C6_1  and  C5_27 
REMARK    2  A    between atoms: C6_1  and  O6_30 
REMARK    3  A    between atoms: O3_2  and  C3_3 
REMARK    4  A    between atoms: C6_4  and  C5_23 
REMARK    5  A    between atoms: C6_4  and  O62_11 
REMARK    6  A    between atoms: C1_6  and  O1_26 
REMARK    7  A    between atoms: C1_7  and  O1_9 
REMARK    8  A    between atoms: O1_9  and  C4_31 
REMARK    9  A    between atoms: C3_10  and  O3_29 
REMARK   10  A    between atoms: S_13  and  O2_22 
REMARK   11  A    between atoms: N_19  and  C2_25 
REMARK   12  A    between atoms: N_19  and  S1_28 
REMARK   13  A    between atoms: C2_20  and  O2_22 
ROOT
ATOM      1  C1  SGN d   1     -36.458  30.707 -29.078  0.00  0.00     0.000 C 
ATOM      2  C2  SGN d   1     -35.977  29.426 -28.416  0.00  0.00     0.000 C 
ATOM      3  C3  SGN d   1     -36.430  28.234 -29.245  0.00  0.00     0.000 C 
ATOM      4  C4  SGN d   1     -37.936  28.288 -29.447  0.00  0.00     0.000 C 
ATOM      5  C5  SGN d   1     -38.321  29.635 -30.037  0.00  0.00     0.000 C 
ATOM      6  O5  SGN d   1     -37.891  30.693 -29.167  0.00  0.00     0.000 OA
ENDROOT
BRANCH   6   7
ATOM      7  O1  SGN d   1     -38.325  27.240 -30.348  0.00  0.00     0.000 OA
BRANCH   7   8
ATOM      8  C1  IDS d   2     -39.242  26.989 -31.421  0.00  0.00     0.000 C 
ATOM      9  C2  IDS d   2     -38.504  27.128 -32.743  0.00  0.00     0.000 C 
ATOM     10  C3  IDS d   2     -39.311  26.454 -33.840  0.00  0.00     0.000 C 
ATOM     11  C4  IDS d   2     -39.349  24.961 -33.558  0.00  0.00     0.000 C 
ATOM     12  C5  IDS d   2     -39.088  24.726 -32.078  0.00  0.00     0.000 C 
ATOM     13  O5  IDS d   2     -39.830  25.682 -31.308  0.00  0.00     0.000 OA
BRANCH   9  14
ATOM     14  O2  IDS d   2     -38.295  28.517 -33.037  0.00  0.00     0.000 OA
BRANCH  14  15
ATOM     15  S   IDS d   2     -36.982  28.987 -33.377  0.00  0.00     0.000 S 
ATOM     16  O3S IDS d   2     -36.921  30.504 -33.191  0.00  0.00     0.000 OA
ATOM     17  O1S IDS d   2     -35.951  28.318 -32.467  0.00  0.00     0.000 OA
ATOM     18  O2S IDS d   2     -36.676  28.639 -34.835  0.00  0.00     0.000 OA
ENDBRANCH  14  15
ENDBRANCH   9  14
BRANCH  10  19
ATOM     19  O3  IDS d   2     -38.675  26.682 -35.108  0.00  0.00     0.000 OA
ATOM     20  H   IDS d   2     -38.103  27.462 -35.047  0.00  0.00     0.000 HD
ENDBRANCH  10  19
BRANCH  12  21
ATOM     21  C6  IDS d   2     -39.538  23.313 -31.705  0.00  0.00     0.000 C 
ATOM     22  O61 IDS d   2     -38.910  22.365 -32.221  0.00  0.00     0.000 OA
BRANCH  21  23
ATOM     23  O62 IDS d   2     -40.484  23.213 -30.892  0.00  0.00     0.000 OA
ENDBRANCH  21  23
ENDBRANCH  12  21
ENDBRANCH   7   8
ENDBRANCH   6   7
BRANCH   1  25
ATOM     25  O3  SGN d   1     -36.087  27.020 -28.562  0.00  0.00    -0.391 OA
ATOM     26  H   SGN d   1     -36.993  26.747 -28.776  0.00  0.00     0.210 HD
ENDBRANCH   1  25
BRANCH   5  27
ATOM     27  C6  SGN d   1     -39.828  29.709 -30.213  0.00  0.00     0.198 C 
BRANCH  27  28
ATOM     28  O6  SGN d   1     -40.136  30.336 -31.461  0.00  0.00    -0.398 OA
ATOM     29  H   SGN d   1     -39.807  31.249 -31.454  0.00  0.00     0.209 HD
ENDBRANCH  27  28
ENDBRANCH   5  27
BRANCH   4  30
ATOM     30  N   SGN d   1     -34.514  29.418 -28.272  0.00  0.00    -0.189 NA
ATOM     31  H   SGN d   1     -34.562  30.291 -28.798  0.00  0.00     0.143 HD
BRANCH  30  32
ATOM     32  S1  SGN d   1     -33.931  29.723 -26.779  0.00  0.00     0.183 S 
ATOM     33  O2S SGN d   1     -34.908  30.620 -26.015  0.00  0.00    -0.582 OA
ATOM     34  O3S SGN d   1     -33.747  28.401 -26.031  0.00  0.00    -0.582 OA
ATOM     35  O1S SGN d   1     -32.580  30.430 -26.896  0.00  0.00    -0.582 OA
ENDBRANCH  30  32
ENDBRANCH   4  30
BRANCH   2  36
ATOM     36  O1  SGN d   1     -35.896  30.807 -30.396  0.00  0.00    -0.369 OA
ATOM     37  H   SGN d   1     -36.096  31.583 -29.849  0.00  0.00     0.212 HD
ENDBRANCH   2  36
TORSDOF 13
ENDMDL
MODEL 36
REMARK VINA RESULT:      -4.9      3.435      6.209
REMARK  13 active torsions:
REMARK  status: ('A' for Active; 'I' for Inactive)
REMARK    1  A    between atoms: C6_1  and  C5_27 
REMARK    2  A    between atoms: C6_1  and  O6_30 
REMARK    3  A    between atoms: O3_2  and  C3_3 
REMARK    4  A    between atoms: C6_4  and  C5_23 
REMARK    5  A    between atoms: C6_4  and  O62_11 
REMARK    6  A    between atoms: C1_6  and  O1_26 
REMARK    7  A    between atoms: C1_7  and  O1_9 
REMARK    8  A    between atoms: O1_9  and  C4_31 
REMARK    9  A    between atoms: C3_10  and  O3_29 
REMARK   10  A    between atoms: S_13  and  O2_22 
REMARK   11  A    between atoms: N_19  and  C2_25 
REMARK   12  A    between atoms: N_19  and  S1_28 
REMARK   13  A    between atoms: C2_20  and  O2_22 
ROOT
ATOM      1  C1  SGN d   1     -41.563  25.537 -31.158  0.00  0.00     0.000 C 
ATOM      2  C2  SGN d   1     -40.918  26.395 -32.233  0.00  0.00     0.000 C 
ATOM      3  C3  SGN d   1     -39.668  27.050 -31.669  0.00  0.00     0.000 C 
ATOM      4  C4  SGN d   1     -40.012  27.816 -30.402  0.00  0.00     0.000 C 
ATOM      5  C5  SGN d   1     -40.722  26.891 -29.426  0.00  0.00     0.000 C 
ATOM      6  O5  SGN d   1     -41.909  26.357 -30.032  0.00  0.00     0.000 OA
ENDROOT
BRANCH   6   7
ATOM      7  O1  SGN d   1     -38.801  28.304 -29.806  0.00  0.00     0.000 OA
BRANCH   7   8
ATOM      8  C1  IDS d   2     -37.568  27.610 -29.572  0.00  0.00     0.000 C 
ATOM      9  C2  IDS d   2     -36.413  28.488 -30.027  0.00  0.00     0.000 C 
ATOM     10  C3  IDS d   2     -35.124  27.983 -29.402  0.00  0.00     0.000 C 
ATOM     11  C4  IDS d   2     -35.211  28.183 -27.898  0.00  0.00     0.000 C 
ATOM     12  C5  IDS d   2     -36.673  28.273 -27.490  0.00  0.00     0.000 C 
ATOM     13  O5  IDS d   2     -37.422  27.266 -28.184  0.00  0.00     0.000 OA
BRANCH   9  14
ATOM     14  O2  IDS d   2     -36.331  28.474 -31.460  0.00  0.00     0.000 OA
BRANCH  14  15
ATOM     15  S   IDS d   2     -36.400  29.706 -32.192  0.00  0.00     0.000 S 
ATOM     16  O3S IDS d   2     -37.580  30.535 -31.682  0.00  0.00     0.000 OA
ATOM     17  O1S IDS d   2     -35.101  30.490 -31.993  0.00  0.00     0.000 OA
ATOM     18  O2S IDS d   2     -36.590  29.407 -33.680  0.00  0.00     0.000 OA
ENDBRANCH  14  15
ENDBRANCH   9  14
BRANCH  10  19
ATOM     19  O3  IDS d   2     -34.016  28.736 -29.919  0.00  0.00     0.000 OA
ATOM     20  H   IDS d   2     -33.935  28.579 -30.872  0.00  0.00     0.000 HD
ENDBRANCH  10  19
BRANCH  12  21
ATOM     21  C6  IDS d   2     -36.790  28.046 -25.981  0.00  0.00     0.000 C 
ATOM     22  O61 IDS d   2     -37.895  28.298 -25.457  0.00  0.00     0.000 OA
BRANCH  21  23
ATOM     23  O62 IDS d   2     -35.780  27.600 -25.393  0.00  0.00     0.000 OA
ENDBRANCH  21  23
ENDBRANCH  12  21
ENDBRANCH   7   8
ENDBRANCH   6   7
BRANCH   1  25
ATOM     25  O3  SGN d   1     -39.124  27.957 -32.639  0.00  0.00    -0.391 OA
ATOM     26  H   SGN d   1     -39.163  27.663 -33.562  0.00  0.00     0.210 HD
ENDBRANCH   1  25
BRANCH   5  27
ATOM     27  C6  SGN d   1     -41.098  27.658 -28.170  0.00  0.00     0.198 C 
BRANCH  27  28
ATOM     28  O6  SGN d   1     -40.124  27.416 -27.150  0.00  0.00    -0.398 OA
ATOM     29  H   SGN d   1     -39.697  26.559 -27.308  0.00  0.00     0.209 HD
ENDBRANCH  27  28
ENDBRANCH   5  27
BRANCH   4  30
ATOM     30  N   SGN d   1     -40.583  25.597 -33.422  0.00  0.00    -0.189 NA
ATOM     31  H   SGN d   1     -40.751  26.390 -34.041  0.00  0.00     0.143 HD
BRANCH  30  32
ATOM     32  S1  SGN d   1     -39.610  24.526 -34.174  0.00  0.00     0.183 S 
ATOM     33  O2S SGN d   1     -38.215  25.129 -34.350  0.00  0.00    -0.582 OA
ATOM     34  O3S SGN d   1     -39.521  23.250 -33.334  0.00  0.00    -0.582 OA
ATOM     35  O1S SGN d   1     -40.192  24.188 -35.547  0.00  0.00    -0.582 OA
ENDBRANCH  30  32
ENDBRANCH   4  30
BRANCH   2  36
ATOM     36  O1  SGN d   1     -40.643  24.515 -30.743  0.00  0.00    -0.369 OA
ATOM     37  H   SGN d   1     -39.995  24.137 -31.357  0.00  0.00     0.212 HD
ENDBRANCH   2  36
TORSDOF 13
ENDMDL
MODEL 37
REMARK VINA RESULT:      -4.9      3.142      4.732
REMARK  13 active torsions:
REMARK  status: ('A' for Active; 'I' for Inactive)
REMARK    1  A    between atoms: C6_1  and  C5_27 
REMARK    2  A    between atoms: C6_1  and  O6_30 
REMARK    3  A    between atoms: O3_2  and  C3_3 
REMARK    4  A    between atoms: C6_4  and  C5_23 
REMARK    5  A    between atoms: C6_4  and  O62_11 
REMARK    6  A    between atoms: C1_6  and  O1_26 
REMARK    7  A    between atoms: C1_7  and  O1_9 
REMARK    8  A    between atoms: O1_9  and  C4_31 
REMARK    9  A    between atoms: C3_10  and  O3_29 
REMARK   10  A    between atoms: S_13  and  O2_22 
REMARK   11  A    between atoms: N_19  and  C2_25 
REMARK   12  A    between atoms: N_19  and  S1_28 
REMARK   13  A    between atoms: C2_20  and  O2_22 
ROOT
ATOM      1  C1  SGN d   1     -37.534  26.476 -34.226  0.00  0.00     0.000 C 
ATOM      2  C2  SGN d   1     -37.670  25.838 -32.853  0.00  0.00     0.000 C 
ATOM      3  C3  SGN d   1     -38.444  26.776 -31.940  0.00  0.00     0.000 C 
ATOM      4  C4  SGN d   1     -37.775  28.141 -31.915  0.00  0.00     0.000 C 
ATOM      5  C5  SGN d   1     -37.613  28.654 -33.337  0.00  0.00     0.000 C 
ATOM      6  O5  SGN d   1     -36.836  27.725 -34.108  0.00  0.00     0.000 OA
ENDROOT
BRANCH   6   7
ATOM      7  O1  SGN d   1     -38.595  29.050 -31.166  0.00  0.00     0.000 OA
BRANCH   7   8
ATOM      8  C1  IDS d   2     -40.029  29.055 -31.165  0.00  0.00     0.000 C 
ATOM      9  C2  IDS d   2     -40.521  29.189 -29.733  0.00  0.00     0.000 C 
ATOM     10  C3  IDS d   2     -41.974  29.631 -29.741  0.00  0.00     0.000 C 
ATOM     11  C4  IDS d   2     -42.044  31.034 -30.321  0.00  0.00     0.000 C 
ATOM     12  C5  IDS d   2     -40.810  31.284 -31.174  0.00  0.00     0.000 C 
ATOM     13  O5  IDS d   2     -40.546  30.124 -31.976  0.00  0.00     0.000 OA
BRANCH   9  14
ATOM     14  O2  IDS d   2     -40.368  27.936 -29.050  0.00  0.00     0.000 OA
BRANCH  14  15
ATOM     15  S   IDS d   2     -39.610  27.871 -27.833  0.00  0.00     0.000 S 
ATOM     16  O3S IDS d   2     -39.749  29.195 -27.077  0.00  0.00     0.000 OA
ATOM     17  O1S IDS d   2     -40.138  26.729 -26.964  0.00  0.00     0.000 OA
ATOM     18  O2S IDS d   2     -38.137  27.623 -28.160  0.00  0.00     0.000 OA
ENDBRANCH  14  15
ENDBRANCH   9  14
BRANCH  10  19
ATOM     19  O3  IDS d   2     -42.476  29.647 -28.396  0.00  0.00     0.000 OA
ATOM     20  H   IDS d   2     -43.395  29.340 -28.390  0.00  0.00     0.000 HD
ENDBRANCH  10  19
BRANCH  12  21
ATOM     21  C6  IDS d   2     -41.062  32.486 -32.086  0.00  0.00     0.000 C 
ATOM     22  O61 IDS d   2     -40.062  33.142 -32.444  0.00  0.00     0.000 OA
BRANCH  21  23
ATOM     23  O62 IDS d   2     -42.247  32.704 -32.426  0.00  0.00     0.000 OA
ENDBRANCH  21  23
ENDBRANCH  12  21
ENDBRANCH   7   8
ENDBRANCH   6   7
BRANCH   1  25
ATOM     25  O3  SGN d   1     -38.469  26.236 -30.611  0.00  0.00    -0.391 OA
ATOM     26  H   SGN d   1     -37.938  25.460 -30.371  0.00  0.00     0.210 HD
ENDBRANCH   1  25
BRANCH   5  27
ATOM     27  C6  SGN d   1     -36.917  30.003 -33.322  0.00  0.00     0.198 C 
BRANCH  27  28
ATOM     28  O6  SGN d   1     -37.884  31.041 -33.137  0.00  0.00    -0.398 OA
ATOM     29  H   SGN d   1     -37.773  31.713 -33.829  0.00  0.00     0.209 HD
ENDBRANCH  27  28
ENDBRANCH   5  27
BRANCH   4  30
ATOM     30  N   SGN d   1     -38.348  24.535 -32.936  0.00  0.00    -0.189 NA
ATOM     31  H   SGN d   1     -37.468  24.222 -32.526  0.00  0.00     0.143 HD
BRANCH  30  32
ATOM     32  S1  SGN d   1     -39.527  23.478 -32.548  0.00  0.00     0.183 S 
ATOM     33  O2S SGN d   1     -40.385  24.051 -31.417  0.00  0.00    -0.582 OA
ATOM     34  O3S SGN d   1     -40.397  23.219 -33.779  0.00  0.00    -0.582 OA
ATOM     35  O1S SGN d   1     -38.898  22.162 -32.088  0.00  0.00    -0.582 OA
ENDBRANCH  30  32
ENDBRANCH   4  30
BRANCH   2  36
ATOM     36  O1  SGN d   1     -38.838  26.705 -34.781  0.00  0.00    -0.369 OA
ATOM     37  H   SGN d   1     -38.529  27.595 -34.555  0.00  0.00     0.212 HD
ENDBRANCH   2  36
TORSDOF 13
ENDMDL
MODEL 38
REMARK VINA RESULT:      -4.9      2.650      4.204
REMARK  13 active torsions:
REMARK  status: ('A' for Active; 'I' for Inactive)
REMARK    1  A    between atoms: C6_1  and  C5_27 
REMARK    2  A    between atoms: C6_1  and  O6_30 
REMARK    3  A    between atoms: O3_2  and  C3_3 
REMARK    4  A    between atoms: C6_4  and  C5_23 
REMARK    5  A    between atoms: C6_4  and  O62_11 
REMARK    6  A    between atoms: C1_6  and  O1_26 
REMARK    7  A    between atoms: C1_7  and  O1_9 
REMARK    8  A    between atoms: O1_9  and  C4_31 
REMARK    9  A    between atoms: C3_10  and  O3_29 
REMARK   10  A    between atoms: S_13  and  O2_22 
REMARK   11  A    between atoms: N_19  and  C2_25 
REMARK   12  A    between atoms: N_19  and  S1_28 
REMARK   13  A    between atoms: C2_20  and  O2_22 
ROOT
ATOM      1  C1  SGN d   1     -42.090  24.650 -30.598  0.00  0.00     0.000 C 
ATOM      2  C2  SGN d   1     -41.376  24.730 -31.938  0.00  0.00     0.000 C 
ATOM      3  C3  SGN d   1     -39.986  25.309 -31.730  0.00  0.00     0.000 C 
ATOM      4  C4  SGN d   1     -40.084  26.644 -31.011  0.00  0.00     0.000 C 
ATOM      5  C5  SGN d   1     -40.881  26.473 -29.728  0.00  0.00     0.000 C 
ATOM      6  O5  SGN d   1     -42.190  25.964 -30.028  0.00  0.00     0.000 OA
ENDROOT
BRANCH   6   7
ATOM      7  O1  SGN d   1     -38.761  27.105 -30.696  0.00  0.00     0.000 OA
BRANCH   7   8
ATOM      8  C1  IDS d   2     -38.563  28.433 -31.201  0.00  0.00     0.000 C 
ATOM      9  C2  IDS d   2     -37.184  28.918 -30.783  0.00  0.00     0.000 C 
ATOM     10  C3  IDS d   2     -36.785  30.101 -31.649  0.00  0.00     0.000 C 
ATOM     11  C4  IDS d   2     -36.622  29.614 -33.079  0.00  0.00     0.000 C 
ATOM     12  C5  IDS d   2     -37.416  28.330 -33.263  0.00  0.00     0.000 C 
ATOM     13  O5  IDS d   2     -38.696  28.470 -32.632  0.00  0.00     0.000 OA
BRANCH   9  14
ATOM     14  O2  IDS d   2     -37.199  29.279 -29.394  0.00  0.00     0.000 OA
BRANCH  14  15
ATOM     15  S   IDS d   2     -36.318  28.619 -28.473  0.00  0.00     0.000 S 
ATOM     16  O3S IDS d   2     -36.051  29.536 -27.278  0.00  0.00     0.000 OA
ATOM     17  O1S IDS d   2     -36.968  27.322 -27.987  0.00  0.00     0.000 OA
ATOM     18  O2S IDS d   2     -34.997  28.294 -29.172  0.00  0.00     0.000 OA
ENDBRANCH  14  15
ENDBRANCH   9  14
BRANCH  10  19
ATOM     19  O3  IDS d   2     -35.536  30.634 -31.182  0.00  0.00     0.000 OA
ATOM     20  H   IDS d   2     -35.644  31.575 -30.974  0.00  0.00     0.000 HD
ENDBRANCH  10  19
BRANCH  12  21
ATOM     21  C6  IDS d   2     -37.612  28.067 -34.757  0.00  0.00     0.000 C 
ATOM     22  O61 IDS d   2     -36.594  28.123 -35.478  0.00  0.00     0.000 OA
BRANCH  21  23
ATOM     23  O62 IDS d   2     -38.771  27.792 -35.139  0.00  0.00     0.000 OA
ENDBRANCH  21  23
ENDBRANCH  12  21
ENDBRANCH   7   8
ENDBRANCH   6   7
BRANCH   1  25
ATOM     25  O3  SGN d   1     -39.354  25.502 -33.004  0.00  0.00    -0.391 OA
ATOM     26  H   SGN d   1     -38.734  25.918 -32.385  0.00  0.00     0.210 HD
ENDBRANCH   1  25
BRANCH   5  27
ATOM     27  C6  SGN d   1     -41.011  27.810 -29.018  0.00  0.00     0.198 C 
BRANCH  27  28
ATOM     28  O6  SGN d   1     -39.880  28.013 -28.166  0.00  0.00    -0.398 OA
ATOM     29  H   SGN d   1     -39.948  28.883 -27.741  0.00  0.00     0.209 HD
ENDBRANCH  27  28
ENDBRANCH   5  27
BRANCH   4  30
ATOM     30  N   SGN d   1     -41.287  23.407 -32.574  0.00  0.00    -0.189 NA
ATOM     31  H   SGN d   1     -41.133  23.745 -33.523  0.00  0.00     0.143 HD
BRANCH  30  32
ATOM     32  S1  SGN d   1     -40.733  21.878 -32.451  0.00  0.00     0.183 S 
ATOM     33  O2S SGN d   1     -40.826  21.183 -33.811  0.00  0.00    -0.582 OA
ATOM     34  O3S SGN d   1     -39.278  21.906 -31.980  0.00  0.00    -0.582 OA
ATOM     35  O1S SGN d   1     -41.579  21.112 -31.432  0.00  0.00    -0.582 OA
ENDBRANCH  30  32
ENDBRANCH   4  30
BRANCH   2  36
ATOM     36  O1  SGN d   1     -41.351  23.796 -29.711  0.00  0.00    -0.369 OA
ATOM     37  H   SGN d   1     -40.755  23.097 -30.022  0.00  0.00     0.212 HD
ENDBRANCH   2  36
TORSDOF 13
ENDMDL
MODEL 39
REMARK VINA RESULT:      -4.8      2.662      4.971
REMARK  13 active torsions:
REMARK  status: ('A' for Active; 'I' for Inactive)
REMARK    1  A    between atoms: C6_1  and  C5_27 
REMARK    2  A    between atoms: C6_1  and  O6_30 
REMARK    3  A    between atoms: O3_2  and  C3_3 
REMARK    4  A    between atoms: C6_4  and  C5_23 
REMARK    5  A    between atoms: C6_4  and  O62_11 
REMARK    6  A    between atoms: C1_6  and  O1_26 
REMARK    7  A    between atoms: C1_7  and  O1_9 
REMARK    8  A    between atoms: O1_9  and  C4_31 
REMARK    9  A    between atoms: C3_10  and  O3_29 
REMARK   10  A    between atoms: S_13  and  O2_22 
REMARK   11  A    between atoms: N_19  and  C2_25 
REMARK   12  A    between atoms: N_19  and  S1_28 
REMARK   13  A    between atoms: C2_20  and  O2_22 
ROOT
ATOM      1  C1  SGN d   1     -42.259  23.976 -30.408  0.00  0.00     0.000 C 
ATOM      2  C2  SGN d   1     -41.920  24.260 -31.862  0.00  0.00     0.000 C 
ATOM      3  C3  SGN d   1     -40.761  25.242 -31.923  0.00  0.00     0.000 C 
ATOM      4  C4  SGN d   1     -41.096  26.488 -31.121  0.00  0.00     0.000 C 
ATOM      5  C5  SGN d   1     -41.497  26.090 -29.709  0.00  0.00     0.000 C 
ATOM      6  O5  SGN d   1     -42.622  25.199 -29.752  0.00  0.00     0.000 OA
ENDROOT
BRANCH   6   7
ATOM      7  O1  SGN d   1     -39.940  27.337 -31.070  0.00  0.00     0.000 OA
BRANCH   7   8
ATOM      8  C1  IDS d   2     -38.579  26.914 -30.908  0.00  0.00     0.000 C 
ATOM      9  C2  IDS d   2     -37.698  27.716 -31.853  0.00  0.00     0.000 C 
ATOM     10  C3  IDS d   2     -36.251  27.608 -31.400  0.00  0.00     0.000 C 
ATOM     11  C4  IDS d   2     -36.120  28.295 -30.051  0.00  0.00     0.000 C 
ATOM     12  C5  IDS d   2     -37.485  28.345 -29.381  0.00  0.00     0.000 C 
ATOM     13  O5  IDS d   2     -38.141  27.080 -29.549  0.00  0.00     0.000 OA
BRANCH   9  14
ATOM     14  O2  IDS d   2     -37.856  27.227 -33.193  0.00  0.00     0.000 OA
BRANCH  14  15
ATOM     15  S   IDS d   2     -38.118  28.146 -34.263  0.00  0.00     0.000 S 
ATOM     16  O3S IDS d   2     -38.503  29.508 -33.681  0.00  0.00     0.000 OA
ATOM     17  O1S IDS d   2     -36.862  28.296 -35.124  0.00  0.00     0.000 OA
ATOM     18  O2S IDS d   2     -39.265  27.616 -35.125  0.00  0.00     0.000 OA
ENDBRANCH  14  15
ENDBRANCH   9  14
BRANCH  10  19
ATOM     19  O3  IDS d   2     -35.403  28.268 -32.353  0.00  0.00     0.000 OA
ATOM     20  H   IDS d   2     -35.880  28.373 -33.191  0.00  0.00     0.000 HD
ENDBRANCH  10  19
BRANCH  12  21
ATOM     21  C6  IDS d   2     -37.304  28.629 -27.889  0.00  0.00     0.000 C 
ATOM     22  O61 IDS d   2     -36.657  29.652 -27.584  0.00  0.00     0.000 OA
BRANCH  21  23
ATOM     23  O62 IDS d   2     -37.840  27.831 -27.088  0.00  0.00     0.000 OA
ENDBRANCH  21  23
ENDBRANCH  12  21
ENDBRANCH   7   8
ENDBRANCH   6   7
BRANCH   1  25
ATOM     25  O3  SGN d   1     -40.518  25.609 -33.289  0.00  0.00    -0.391 OA
ATOM     26  H   SGN d   1     -40.094  24.825 -33.672  0.00  0.00     0.210 HD
ENDBRANCH   1  25
BRANCH   5  27
ATOM     27  C6  SGN d   1     -41.864  27.328 -28.909  0.00  0.00     0.198 C 
BRANCH  27  28
ATOM     28  O6  SGN d   1     -40.721  27.786 -28.181  0.00  0.00    -0.398 OA
ATOM     29  H   SGN d   1     -40.946  28.602 -27.706  0.00  0.00     0.209 HD
ENDBRANCH  27  28
ENDBRANCH   5  27
BRANCH   4  30
ATOM     30  N   SGN d   1     -41.579  23.023 -32.581  0.00  0.00    -0.189 NA
ATOM     31  H   SGN d   1     -41.530  23.362 -33.541  0.00  0.00     0.143 HD
BRANCH  30  32
ATOM     32  S1  SGN d   1     -40.691  21.662 -32.446  0.00  0.00     0.183 S 
ATOM     33  O2S SGN d   1     -41.310  20.741 -31.392  0.00  0.00    -0.582 OA
ATOM     34  O3S SGN d   1     -40.652  20.950 -33.799  0.00  0.00    -0.582 OA
ATOM     35  O1S SGN d   1     -39.266  22.025 -32.025  0.00  0.00    -0.582 OA
ENDBRANCH  30  32
ENDBRANCH   4  30
BRANCH   2  36
ATOM     36  O1  SGN d   1     -41.118  23.400 -29.753  0.00  0.00    -0.369 OA
ATOM     37  H   SGN d   1     -40.313  23.091 -30.197  0.00  0.00     0.212 HD
ENDBRANCH   2  36
TORSDOF 13
ENDMDL
MODEL 40
REMARK VINA RESULT:      -4.8      3.291      5.830
REMARK  13 active torsions:
REMARK  status: ('A' for Active; 'I' for Inactive)
REMARK    1  A    between atoms: C6_1  and  C5_27 
REMARK    2  A    between atoms: C6_1  and  O6_30 
REMARK    3  A    between atoms: O3_2  and  C3_3 
REMARK    4  A    between atoms: C6_4  and  C5_23 
REMARK    5  A    between atoms: C6_4  and  O62_11 
REMARK    6  A    between atoms: C1_6  and  O1_26 
REMARK    7  A    between atoms: C1_7  and  O1_9 
REMARK    8  A    between atoms: O1_9  and  C4_31 
REMARK    9  A    between atoms: C3_10  and  O3_29 
REMARK   10  A    between atoms: S_13  and  O2_22 
REMARK   11  A    between atoms: N_19  and  C2_25 
REMARK   12  A    between atoms: N_19  and  S1_28 
REMARK   13  A    between atoms: C2_20  and  O2_22 
ROOT
ATOM      1  C1  SGN d   1     -37.004  26.132 -33.463  0.00  0.00     0.000 C 
ATOM      2  C2  SGN d   1     -37.668  25.671 -32.176  0.00  0.00     0.000 C 
ATOM      3  C3  SGN d   1     -38.699  26.703 -31.748  0.00  0.00     0.000 C 
ATOM      4  C4  SGN d   1     -38.046  28.072 -31.641  0.00  0.00     0.000 C 
ATOM      5  C5  SGN d   1     -37.345  28.404 -32.948  0.00  0.00     0.000 C 
ATOM      6  O5  SGN d   1     -36.363  27.399 -33.246  0.00  0.00     0.000 OA
ENDROOT
BRANCH   6   7
ATOM      7  O1  SGN d   1     -39.060  29.054 -31.378  0.00  0.00     0.000 OA
BRANCH   7   8
ATOM      8  C1  IDS d   2     -38.728  29.776 -30.183  0.00  0.00     0.000 C 
ATOM      9  C2  IDS d   2     -39.794  30.831 -29.933  0.00  0.00     0.000 C 
ATOM     10  C3  IDS d   2     -39.711  31.295 -28.489  0.00  0.00     0.000 C 
ATOM     11  C4  IDS d   2     -40.084  30.128 -27.590  0.00  0.00     0.000 C 
ATOM     12  C5  IDS d   2     -39.866  28.826 -28.345  0.00  0.00     0.000 C 
ATOM     13  O5  IDS d   2     -38.621  28.893 -29.055  0.00  0.00     0.000 OA
BRANCH   9  14
ATOM     14  O2  IDS d   2     -39.608  31.930 -30.838  0.00  0.00     0.000 OA
BRANCH  14  15
ATOM     15  S   IDS d   2     -40.657  32.293 -31.748  0.00  0.00     0.000 S 
ATOM     16  O3S IDS d   2     -40.043  32.754 -33.072  0.00  0.00     0.000 OA
ATOM     17  O1S IDS d   2     -41.556  31.081 -31.998  0.00  0.00     0.000 OA
ATOM     18  O2S IDS d   2     -41.487  33.428 -31.148  0.00  0.00     0.000 OA
ENDBRANCH  14  15
ENDBRANCH   9  14
BRANCH  10  19
ATOM     19  O3  IDS d   2     -40.637  32.372 -28.279  0.00  0.00     0.000 OA
ATOM     20  H   IDS d   2     -41.294  32.377 -28.993  0.00  0.00     0.000 HD
ENDBRANCH  10  19
BRANCH  12  21
ATOM     21  C6  IDS d   2     -39.821  27.666 -27.349  0.00  0.00     0.000 C 
ATOM     22  O61 IDS d   2     -40.363  26.598 -27.702  0.00  0.00     0.000 OA
BRANCH  21  23
ATOM     23  O62 IDS d   2     -39.224  27.867 -26.268  0.00  0.00     0.000 OA
ENDBRANCH  21  23
ENDBRANCH  12  21
ENDBRANCH   7   8
ENDBRANCH   6   7
BRANCH   1  25
ATOM     25  O3  SGN d   1     -39.241  26.336 -30.471  0.00  0.00    -0.391 OA
ATOM     26  H   SGN d   1     -39.816  27.059 -30.763  0.00  0.00     0.210 HD
ENDBRANCH   1  25
BRANCH   5  27
ATOM     27  C6  SGN d   1     -36.663  29.757 -32.839  0.00  0.00     0.198 C 
BRANCH  27  28
ATOM     28  O6  SGN d   1     -37.608  30.794 -33.116  0.00  0.00    -0.398 OA
ATOM     29  H   SGN d   1     -37.314  31.302 -33.888  0.00  0.00     0.209 HD
ENDBRANCH  27  28
ENDBRANCH   5  27
BRANCH   4  30
ATOM     30  N   SGN d   1     -38.304  24.356 -32.347  0.00  0.00    -0.189 NA
ATOM     31  H   SGN d   1     -37.621  24.118 -31.628  0.00  0.00     0.143 HD
BRANCH  30  32
ATOM     32  S1  SGN d   1     -39.564  23.325 -32.254  0.00  0.00     0.183 S 
ATOM     33  O2S SGN d   1     -40.502  23.754 -31.123  0.00  0.00    -0.582 OA
ATOM     34  O3S SGN d   1     -40.318  23.330 -33.585  0.00  0.00    -0.582 OA
ATOM     35  O1S SGN d   1     -39.045  21.914 -31.973  0.00  0.00    -0.582 OA
ENDBRANCH  30  32
ENDBRANCH   4  30
BRANCH   2  36
ATOM     36  O1  SGN d   1     -37.994  26.265 -34.494  0.00  0.00    -0.369 OA
ATOM     37  H   SGN d   1     -37.879  27.199 -34.260  0.00  0.00     0.212 HD
ENDBRANCH   2  36
TORSDOF 13
ENDMDL
MODEL 41
REMARK VINA RESULT:      -4.8      3.215      6.299
REMARK  13 active torsions:
REMARK  status: ('A' for Active; 'I' for Inactive)
REMARK    1  A    between atoms: C6_1  and  C5_27 
REMARK    2  A    between atoms: C6_1  and  O6_30 
REMARK    3  A    between atoms: O3_2  and  C3_3 
REMARK    4  A    between atoms: C6_4  and  C5_23 
REMARK    5  A    between atoms: C6_4  and  O62_11 
REMARK    6  A    between atoms: C1_6  and  O1_26 
REMARK    7  A    between atoms: C1_7  and  O1_9 
REMARK    8  A    between atoms: O1_9  and  C4_31 
REMARK    9  A    between atoms: C3_10  and  O3_29 
REMARK   10  A    between atoms: S_13  and  O2_22 
REMARK   11  A    between atoms: N_19  and  C2_25 
REMARK   12  A    between atoms: N_19  and  S1_28 
REMARK   13  A    between atoms: C2_20  and  O2_22 
ROOT
ATOM      1  C1  SGN d   1     -39.751  30.095 -28.365  0.00  0.00     0.000 C 
ATOM      2  C2  SGN d   1     -40.227  28.698 -28.000  0.00  0.00     0.000 C 
ATOM      3  C3  SGN d   1     -39.884  27.742 -29.131  0.00  0.00     0.000 C 
ATOM      4  C4  SGN d   1     -40.458  28.260 -30.439  0.00  0.00     0.000 C 
ATOM      5  C5  SGN d   1     -39.987  29.687 -30.671  0.00  0.00     0.000 C 
ATOM      6  O5  SGN d   1     -40.394  30.521 -29.575  0.00  0.00     0.000 OA
ENDROOT
BRANCH   6   7
ATOM      7  O1  SGN d   1     -40.003  27.424 -31.514  0.00  0.00     0.000 OA
BRANCH   7   8
ATOM      8  C1  IDS d   2     -38.707  26.814 -31.584  0.00  0.00     0.000 C 
ATOM      9  C2  IDS d   2     -38.836  25.460 -32.265  0.00  0.00     0.000 C 
ATOM     10  C3  IDS d   2     -37.465  25.006 -32.738  0.00  0.00     0.000 C 
ATOM     11  C4  IDS d   2     -36.994  25.958 -33.825  0.00  0.00     0.000 C 
ATOM     12  C5  IDS d   2     -37.729  27.282 -33.682  0.00  0.00     0.000 C 
ATOM     13  O5  IDS d   2     -37.778  27.649 -32.296  0.00  0.00     0.000 OA
BRANCH   9  14
ATOM     14  O2  IDS d   2     -39.406  24.512 -31.351  0.00  0.00     0.000 OA
BRANCH  14  15
ATOM     15  S   IDS d   2     -40.203  23.428 -31.850  0.00  0.00     0.000 S 
ATOM     16  O3S IDS d   2     -41.448  23.268 -30.975  0.00  0.00     0.000 OA
ATOM     17  O1S IDS d   2     -40.626  23.728 -33.290  0.00  0.00     0.000 OA
ATOM     18  O2S IDS d   2     -39.388  22.135 -31.819  0.00  0.00     0.000 OA
ENDBRANCH  14  15
ENDBRANCH   9  14
BRANCH  10  19
ATOM     19  O3  IDS d   2     -37.563  23.679 -33.278  0.00  0.00     0.000 OA
ATOM     20  H   IDS d   2     -38.132  23.690 -34.063  0.00  0.00     0.000 HD
ENDBRANCH  10  19
BRANCH  12  21
ATOM     21  C6  IDS d   2     -36.980  28.361 -34.467  0.00  0.00     0.000 C 
ATOM     22  O61 IDS d   2     -36.623  28.069 -35.627  0.00  0.00     0.000 OA
BRANCH  21  23
ATOM     23  O62 IDS d   2     -36.807  29.461 -33.898  0.00  0.00     0.000 OA
ENDBRANCH  21  23
ENDBRANCH  12  21
ENDBRANCH   7   8
ENDBRANCH   6   7
BRANCH   1  25
ATOM     25  O3  SGN d   1     -40.439  26.449 -28.848  0.00  0.00    -0.391 OA
ATOM     26  H   SGN d   1     -40.133  26.124 -27.987  0.00  0.00     0.210 HD
ENDBRANCH   1  25
BRANCH   5  27
ATOM     27  C6  SGN d   1     -40.583  30.223 -31.961  0.00  0.00     0.198 C 
BRANCH  27  28
ATOM     28  O6  SGN d   1     -39.677  29.986 -33.043  0.00  0.00    -0.398 OA
ATOM     29  H   SGN d   1     -38.772  29.926 -32.699  0.00  0.00     0.209 HD
ENDBRANCH  27  28
ENDBRANCH   5  27
BRANCH   4  30
ATOM     30  N   SGN d   1     -39.619  28.240 -26.742  0.00  0.00    -0.189 NA
ATOM     31  H   SGN d   1     -40.342  27.554 -26.527  0.00  0.00     0.143 HD
BRANCH  30  32
ATOM     32  S1  SGN d   1     -38.250  27.845 -25.949  0.00  0.00     0.183 S 
ATOM     33  O2S SGN d   1     -38.514  26.656 -25.021  0.00  0.00    -0.582 OA
ATOM     34  O3S SGN d   1     -37.166  27.481 -26.964  0.00  0.00    -0.582 OA
ATOM     35  O1S SGN d   1     -37.783  29.040 -25.117  0.00  0.00    -0.582 OA
ENDBRANCH  30  32
ENDBRANCH   4  30
BRANCH   2  36
ATOM     36  O1  SGN d   1     -38.327  30.082 -28.556  0.00  0.00    -0.369 OA
ATOM     37  H   SGN d   1     -38.033  29.407 -29.186  0.00  0.00     0.212 HD
ENDBRANCH   2  36
TORSDOF 13
ENDMDL
MODEL 42
REMARK VINA RESULT:      -4.8      4.446      8.125
REMARK  13 active torsions:
REMARK  status: ('A' for Active; 'I' for Inactive)
REMARK    1  A    between atoms: C6_1  and  C5_27 
REMARK    2  A    between atoms: C6_1  and  O6_30 
REMARK    3  A    between atoms: O3_2  and  C3_3 
REMARK    4  A    between atoms: C6_4  and  C5_23 
REMARK    5  A    between atoms: C6_4  and  O62_11 
REMARK    6  A    between atoms: C1_6  and  O1_26 
REMARK    7  A    between atoms: C1_7  and  O1_9 
REMARK    8  A    between atoms: O1_9  and  C4_31 
REMARK    9  A    between atoms: C3_10  and  O3_29 
REMARK   10  A    between atoms: S_13  and  O2_22 
REMARK   11  A    between atoms: N_19  and  C2_25 
REMARK   12  A    between atoms: N_19  and  S1_28 
REMARK   13  A    between atoms: C2_20  and  O2_22 
ROOT
ATOM      1  C1  SGN d   1     -35.777  31.674 -27.949  0.00  0.00     0.000 C 
ATOM      2  C2  SGN d   1     -35.165  30.314 -28.238  0.00  0.00     0.000 C 
ATOM      3  C3  SGN d   1     -35.922  29.657 -29.381  0.00  0.00     0.000 C 
ATOM      4  C4  SGN d   1     -37.405  29.601 -29.054  0.00  0.00     0.000 C 
ATOM      5  C5  SGN d   1     -37.901  30.995 -28.702  0.00  0.00     0.000 C 
ATOM      6  O5  SGN d   1     -37.157  31.513 -27.589  0.00  0.00     0.000 OA
ENDROOT
BRANCH   6   7
ATOM      7  O1  SGN d   1     -38.119  29.113 -30.199  0.00  0.00     0.000 OA
BRANCH   7   8
ATOM      8  C1  IDS d   2     -37.801  29.415 -31.565  0.00  0.00     0.000 C 
ATOM      9  C2  IDS d   2     -38.058  28.181 -32.416  0.00  0.00     0.000 C 
ATOM     10  C3  IDS d   2     -38.153  28.591 -33.875  0.00  0.00     0.000 C 
ATOM     11  C4  IDS d   2     -39.388  29.461 -34.048  0.00  0.00     0.000 C 
ATOM     12  C5  IDS d   2     -39.763  30.068 -32.705  0.00  0.00     0.000 C 
ATOM     13  O5  IDS d   2     -38.576  30.527 -32.044  0.00  0.00     0.000 OA
BRANCH   9  14
ATOM     14  O2  IDS d   2     -37.003  27.229 -32.216  0.00  0.00     0.000 OA
BRANCH  14  15
ATOM     15  S   IDS d   2     -37.296  25.948 -31.639  0.00  0.00     0.000 S 
ATOM     16  O3S IDS d   2     -36.613  25.838 -30.274  0.00  0.00     0.000 OA
ATOM     17  O1S IDS d   2     -38.808  25.801 -31.466  0.00  0.00     0.000 OA
ATOM     18  O2S IDS d   2     -36.779  24.841 -32.559  0.00  0.00     0.000 OA
ENDBRANCH  14  15
ENDBRANCH   9  14
BRANCH  10  19
ATOM     19  O3  IDS d   2     -38.280  27.417 -34.693  0.00  0.00     0.000 OA
ATOM     20  H   IDS d   2     -39.016  26.875 -34.368  0.00  0.00     0.000 HD
ENDBRANCH  10  19
BRANCH  12  21
ATOM     21  C6  IDS d   2     -40.708  31.250 -32.932  0.00  0.00     0.000 C 
ATOM     22  O61 IDS d   2     -41.818  30.994 -33.444  0.00  0.00     0.000 OA
BRANCH  21  23
ATOM     23  O62 IDS d   2     -40.308  32.377 -32.565  0.00  0.00     0.000 OA
ENDBRANCH  21  23
ENDBRANCH  12  21
ENDBRANCH   7   8
ENDBRANCH   6   7
BRANCH   1  25
ATOM     25  O3  SGN d   1     -35.429  28.324 -29.576  0.00  0.00    -0.391 OA
ATOM     26  H   SGN d   1     -35.068  27.829 -28.824  0.00  0.00     0.210 HD
ENDBRANCH   1  25
BRANCH   5  27
ATOM     27  C6  SGN d   1     -39.376  30.943 -28.343  0.00  0.00     0.198 C 
BRANCH  27  28
ATOM     28  O6  SGN d   1     -40.159  31.352 -29.468  0.00  0.00    -0.398 OA
ATOM     29  H   SGN d   1     -39.889  32.243 -29.743  0.00  0.00     0.209 HD
ENDBRANCH  27  28
ENDBRANCH   5  27
BRANCH   4  30
ATOM     30  N   SGN d   1     -33.738  30.433 -28.574  0.00  0.00    -0.189 NA
ATOM     31  H   SGN d   1     -33.455  29.454 -28.616  0.00  0.00     0.143 HD
BRANCH  30  32
ATOM     32  S1  SGN d   1     -32.709  31.329 -29.467  0.00  0.00     0.183 S 
ATOM     33  O2S SGN d   1     -32.489  32.687 -28.796  0.00  0.00    -0.582 OA
ATOM     34  O3S SGN d   1     -31.375  30.590 -29.592  0.00  0.00    -0.582 OA
ATOM     35  O1S SGN d   1     -33.301  31.543 -30.860  0.00  0.00    -0.582 OA
ENDBRANCH  30  32
ENDBRANCH   4  30
BRANCH   2  36
ATOM     36  O1  SGN d   1     -35.679  32.504 -29.117  0.00  0.00    -0.369 OA
ATOM     37  H   SGN d   1     -35.335  32.900 -28.301  0.00  0.00     0.212 HD
ENDBRANCH   2  36
TORSDOF 13
ENDMDL
MODEL 43
REMARK VINA RESULT:      -4.8      2.336      4.589
REMARK  13 active torsions:
REMARK  status: ('A' for Active; 'I' for Inactive)
REMARK    1  A    between atoms: C6_1  and  C5_27 
REMARK    2  A    between atoms: C6_1  and  O6_30 
REMARK    3  A    between atoms: O3_2  and  C3_3 
REMARK    4  A    between atoms: C6_4  and  C5_23 
REMARK    5  A    between atoms: C6_4  and  O62_11 
REMARK    6  A    between atoms: C1_6  and  O1_26 
REMARK    7  A    between atoms: C1_7  and  O1_9 
REMARK    8  A    between atoms: O1_9  and  C4_31 
REMARK    9  A    between atoms: C3_10  and  O3_29 
REMARK   10  A    between atoms: S_13  and  O2_22 
REMARK   11  A    between atoms: N_19  and  C2_25 
REMARK   12  A    between atoms: N_19  and  S1_28 
REMARK   13  A    between atoms: C2_20  and  O2_22 
ROOT
ATOM      1  C1  SGN d   1     -40.340  23.260 -31.408  0.00  0.00     0.000 C 
ATOM      2  C2  SGN d   1     -40.983  23.217 -32.784  0.00  0.00     0.000 C 
ATOM      3  C3  SGN d   1     -40.740  24.540 -33.492  0.00  0.00     0.000 C 
ATOM      4  C4  SGN d   1     -41.232  25.688 -32.625  0.00  0.00     0.000 C 
ATOM      5  C5  SGN d   1     -40.592  25.595 -31.249  0.00  0.00     0.000 C 
ATOM      6  O5  SGN d   1     -40.912  24.332 -30.644  0.00  0.00     0.000 OA
ENDROOT
BRANCH   6   7
ATOM      7  O1  SGN d   1     -40.865  26.931 -33.242  0.00  0.00     0.000 OA
BRANCH   7   8
ATOM      8  C1  IDS d   2     -39.599  27.438 -33.686  0.00  0.00     0.000 C 
ATOM      9  C2  IDS d   2     -39.332  28.767 -32.998  0.00  0.00     0.000 C 
ATOM     10  C3  IDS d   2     -37.853  29.097 -33.104  0.00  0.00     0.000 C 
ATOM     11  C4  IDS d   2     -37.074  28.067 -32.302  0.00  0.00     0.000 C 
ATOM     12  C5  IDS d   2     -37.916  26.810 -32.154  0.00  0.00     0.000 C 
ATOM     13  O5  IDS d   2     -38.540  26.506 -33.409  0.00  0.00     0.000 OA
BRANCH   9  14
ATOM     14  O2  IDS d   2     -40.133  29.794 -33.602  0.00  0.00     0.000 OA
BRANCH  14  15
ATOM     15  S   IDS d   2     -40.906  30.677 -32.775  0.00  0.00     0.000 S 
ATOM     16  O3S IDS d   2     -41.397  29.918 -31.541  0.00  0.00     0.000 OA
ATOM     17  O1S IDS d   2     -40.035  31.856 -32.337  0.00  0.00     0.000 OA
ATOM     18  O2S IDS d   2     -42.107  31.198 -33.565  0.00  0.00     0.000 OA
ENDBRANCH  14  15
ENDBRANCH   9  14
BRANCH  10  19
ATOM     19  O3  IDS d   2     -37.615  30.404 -32.558  0.00  0.00     0.000 OA
ATOM     20  H   IDS d   2     -37.051  30.910 -33.162  0.00  0.00     0.000 HD
ENDBRANCH  10  19
BRANCH  12  21
ATOM     21  C6  IDS d   2     -37.014  25.645 -31.741  0.00  0.00     0.000 C 
ATOM     22  O61 IDS d   2     -36.755  25.536 -30.524  0.00  0.00     0.000 OA
BRANCH  21  23
ATOM     23  O62 IDS d   2     -36.626  24.875 -32.648  0.00  0.00     0.000 OA
ENDBRANCH  21  23
ENDBRANCH  12  21
ENDBRANCH   7   8
ENDBRANCH   6   7
BRANCH   1  25
ATOM     25  O3  SGN d   1     -41.449  24.551 -34.740  0.00  0.00    -0.391 OA
ATOM     26  H   SGN d   1     -40.716  24.219 -35.280  0.00  0.00     0.210 HD
ENDBRANCH   1  25
BRANCH   5  27
ATOM     27  C6  SGN d   1     -41.103  26.720 -30.365  0.00  0.00     0.198 C 
BRANCH  27  28
ATOM     28  O6  SGN d   1     -42.352  27.199 -30.872  0.00  0.00    -0.398 OA
ATOM     29  H   SGN d   1     -43.055  26.570 -30.644  0.00  0.00     0.209 HD
ENDBRANCH  27  28
ENDBRANCH   5  27
BRANCH   4  30
ATOM     30  N   SGN d   1     -40.450  22.105 -33.586  0.00  0.00    -0.189 NA
ATOM     31  H   SGN d   1     -39.444  22.244 -33.498  0.00  0.00     0.143 HD
BRANCH  30  32
ATOM     32  S1  SGN d   1     -40.860  20.687 -32.892  0.00  0.00     0.183 S 
ATOM     33  O2S SGN d   1     -40.774  19.561 -33.924  0.00  0.00    -0.582 OA
ATOM     34  O3S SGN d   1     -39.907  20.401 -31.730  0.00  0.00    -0.582 OA
ATOM     35  O1S SGN d   1     -42.291  20.777 -32.360  0.00  0.00    -0.582 OA
ENDBRANCH  30  32
ENDBRANCH   4  30
BRANCH   2  36
ATOM     36  O1  SGN d   1     -38.926  23.469 -31.545  0.00  0.00    -0.369 OA
ATOM     37  H   SGN d   1     -38.884  24.397 -31.824  0.00  0.00     0.212 HD
ENDBRANCH   2  36
TORSDOF 13
ENDMDL
MODEL 44
REMARK VINA RESULT:      -4.8      3.352      5.089
REMARK  13 active torsions:
REMARK  status: ('A' for Active; 'I' for Inactive)
REMARK    1  A    between atoms: C6_1  and  C5_27 
REMARK    2  A    between atoms: C6_1  and  O6_30 
REMARK    3  A    between atoms: O3_2  and  C3_3 
REMARK    4  A    between atoms: C6_4  and  C5_23 
REMARK    5  A    between atoms: C6_4  and  O62_11 
REMARK    6  A    between atoms: C1_6  and  O1_26 
REMARK    7  A    between atoms: C1_7  and  O1_9 
REMARK    8  A    between atoms: O1_9  and  C4_31 
REMARK    9  A    between atoms: C3_10  and  O3_29 
REMARK   10  A    between atoms: S_13  and  O2_22 
REMARK   11  A    between atoms: N_19  and  C2_25 
REMARK   12  A    between atoms: N_19  and  S1_28 
REMARK   13  A    between atoms: C2_20  and  O2_22 
ROOT
ATOM      1  C1  SGN d   1     -37.550  26.992 -34.708  0.00  0.00     0.000 C 
ATOM      2  C2  SGN d   1     -37.683  25.688 -33.939  0.00  0.00     0.000 C 
ATOM      3  C3  SGN d   1     -38.051  25.994 -32.496  0.00  0.00     0.000 C 
ATOM      4  C4  SGN d   1     -37.038  26.955 -31.896  0.00  0.00     0.000 C 
ATOM      5  C5  SGN d   1     -36.921  28.186 -32.780  0.00  0.00     0.000 C 
ATOM      6  O5  SGN d   1     -36.529  27.802 -34.107  0.00  0.00     0.000 OA
ENDROOT
BRANCH   6   7
ATOM      7  O1  SGN d   1     -37.479  27.343 -30.587  0.00  0.00     0.000 OA
BRANCH   7   8
ATOM      8  C1  IDS d   2     -38.804  27.710 -30.177  0.00  0.00     0.000 C 
ATOM      9  C2  IDS d   2     -38.719  28.492 -28.876  0.00  0.00     0.000 C 
ATOM     10  C3  IDS d   2     -40.018  29.249 -28.662  0.00  0.00     0.000 C 
ATOM     11  C4  IDS d   2     -40.146  30.299 -29.753  0.00  0.00     0.000 C 
ATOM     12  C5  IDS d   2     -39.291  29.890 -30.942  0.00  0.00     0.000 C 
ATOM     13  O5  IDS d   2     -39.464  28.488 -31.190  0.00  0.00     0.000 OA
BRANCH   9  14
ATOM     14  O2  IDS d   2     -38.461  27.593 -27.788  0.00  0.00     0.000 OA
BRANCH  14  15
ATOM     15  S   IDS d   2     -37.322  27.804 -26.940  0.00  0.00     0.000 S 
ATOM     16  O3S IDS d   2     -37.485  26.988 -25.656  0.00  0.00     0.000 OA
ATOM     17  O1S IDS d   2     -36.054  27.358 -27.671  0.00  0.00     0.000 OA
ATOM     18  O2S IDS d   2     -37.211  29.289 -26.590  0.00  0.00     0.000 OA
ENDBRANCH  14  15
ENDBRANCH   9  14
BRANCH  10  19
ATOM     19  O3  IDS d   2     -39.987  29.897 -27.380  0.00  0.00     0.000 OA
ATOM     20  H   IDS d   2     -40.663  30.591 -27.352  0.00  0.00     0.000 HD
ENDBRANCH  10  19
BRANCH  12  21
ATOM     21  C6  IDS d   2     -39.731  30.682 -32.176  0.00  0.00     0.000 C 
ATOM     22  O61 IDS d   2     -39.874  31.914 -32.033  0.00  0.00     0.000 OA
BRANCH  21  23
ATOM     23  O62 IDS d   2     -39.888  30.039 -33.238  0.00  0.00     0.000 OA
ENDBRANCH  21  23
ENDBRANCH  12  21
ENDBRANCH   7   8
ENDBRANCH   6   7
BRANCH   1  25
ATOM     25  O3  SGN d   1     -38.057  24.776 -31.736  0.00  0.00    -0.391 OA
ATOM     26  H   SGN d   1     -37.371  24.116 -31.923  0.00  0.00     0.210 HD
ENDBRANCH   1  25
BRANCH   5  27
ATOM     27  C6  SGN d   1     -35.886  29.138 -32.205  0.00  0.00     0.198 C 
BRANCH  27  28
ATOM     28  O6  SGN d   1     -35.021  28.426 -31.315  0.00  0.00    -0.398 OA
ATOM     29  H   SGN d   1     -35.555  27.901 -30.697  0.00  0.00     0.209 HD
ENDBRANCH  27  28
ENDBRANCH   5  27
BRANCH   4  30
ATOM     30  N   SGN d   1     -38.695  24.811 -34.548  0.00  0.00    -0.189 NA
ATOM     31  H   SGN d   1     -38.193  23.972 -34.260  0.00  0.00     0.143 HD
BRANCH  30  32
ATOM     32  S1  SGN d   1     -40.261  24.437 -34.810  0.00  0.00     0.183 S 
ATOM     33  O2S SGN d   1     -40.683  23.297 -33.880  0.00  0.00    -0.582 OA
ATOM     34  O3S SGN d   1     -41.125  25.671 -34.543  0.00  0.00    -0.582 OA
ATOM     35  O1S SGN d   1     -40.441  23.998 -36.263  0.00  0.00    -0.582 OA
ENDBRANCH  30  32
ENDBRANCH   4  30
BRANCH   2  36
ATOM     36  O1  SGN d   1     -38.801  27.696 -34.680  0.00  0.00    -0.369 OA
ATOM     37  H   SGN d   1     -38.263  27.685 -35.486  0.00  0.00     0.212 HD
ENDBRANCH   2  36
TORSDOF 13
ENDMDL
MODEL 45
REMARK VINA RESULT:      -4.8      3.266      5.374
REMARK  13 active torsions:
REMARK  status: ('A' for Active; 'I' for Inactive)
REMARK    1  A    between atoms: C6_1  and  C5_27 
REMARK    2  A    between atoms: C6_1  and  O6_30 
REMARK    3  A    between atoms: O3_2  and  C3_3 
REMARK    4  A    between atoms: C6_4  and  C5_23 
REMARK    5  A    between atoms: C6_4  and  O62_11 
REMARK    6  A    between atoms: C1_6  and  O1_26 
REMARK    7  A    between atoms: C1_7  and  O1_9 
REMARK    8  A    between atoms: O1_9  and  C4_31 
REMARK    9  A    between atoms: C3_10  and  O3_29 
REMARK   10  A    between atoms: S_13  and  O2_22 
REMARK   11  A    between atoms: N_19  and  C2_25 
REMARK   12  A    between atoms: N_19  and  S1_28 
REMARK   13  A    between atoms: C2_20  and  O2_22 
ROOT
ATOM      1  C1  SGN d   1     -41.267  26.264 -30.961  0.00  0.00     0.000 C 
ATOM      2  C2  SGN d   1     -40.040  26.251 -31.858  0.00  0.00     0.000 C 
ATOM      3  C3  SGN d   1     -38.807  26.557 -31.023  0.00  0.00     0.000 C 
ATOM      4  C4  SGN d   1     -39.002  27.865 -30.273  0.00  0.00     0.000 C 
ATOM      5  C5  SGN d   1     -40.292  27.804 -29.472  0.00  0.00     0.000 C 
ATOM      6  O5  SGN d   1     -41.402  27.555 -30.349  0.00  0.00     0.000 OA
ENDROOT
BRANCH   6   7
ATOM      7  O1  SGN d   1     -37.893  28.063 -29.383  0.00  0.00     0.000 OA
BRANCH   7   8
ATOM      8  C1  IDS d   2     -37.315  29.366 -29.546  0.00  0.00     0.000 C 
ATOM      9  C2  IDS d   2     -35.846  29.305 -29.157  0.00  0.00     0.000 C 
ATOM     10  C3  IDS d   2     -35.128  30.517 -29.725  0.00  0.00     0.000 C 
ATOM     11  C4  IDS d   2     -35.145  30.417 -31.241  0.00  0.00     0.000 C 
ATOM     12  C5  IDS d   2     -36.291  29.513 -31.669  0.00  0.00     0.000 C 
ATOM     13  O5  IDS d   2     -37.458  29.832 -30.898  0.00  0.00     0.000 OA
BRANCH   9  14
ATOM     14  O2  IDS d   2     -35.726  29.259 -27.728  0.00  0.00     0.000 OA
BRANCH  14  15
ATOM     15  S   IDS d   2     -35.344  28.036 -27.081  0.00  0.00     0.000 S 
ATOM     16  O3S IDS d   2     -34.241  28.323 -26.061  0.00  0.00     0.000 OA
ATOM     17  O1S IDS d   2     -36.558  27.438 -26.366  0.00  0.00     0.000 OA
ATOM     18  O2S IDS d   2     -34.829  27.043 -28.125  0.00  0.00     0.000 OA
ENDBRANCH  14  15
ENDBRANCH   9  14
BRANCH  10  19
ATOM     19  O3  IDS d   2     -33.768  30.525 -29.264  0.00  0.00     0.000 OA
ATOM     20  H   IDS d   2     -33.747  30.752 -28.322  0.00  0.00     0.000 HD
ENDBRANCH  10  19
BRANCH  12  21
ATOM     21  C6  IDS d   2     -36.585  29.739 -33.153  0.00  0.00     0.000 C 
ATOM     22  O61 IDS d   2     -36.740  30.921 -33.524  0.00  0.00     0.000 OA
BRANCH  21  23
ATOM     23  O62 IDS d   2     -36.621  28.726 -33.887  0.00  0.00     0.000 OA
ENDBRANCH  21  23
ENDBRANCH  12  21
ENDBRANCH   7   8
ENDBRANCH   6   7
BRANCH   1  25
ATOM     25  O3  SGN d   1     -37.664  26.669 -31.883  0.00  0.00    -0.391 OA
ATOM     26  H   SGN d   1     -37.266  26.159 -31.160  0.00  0.00     0.210 HD
ENDBRANCH   1  25
BRANCH   5  27
ATOM     27  C6  SGN d   1     -40.510  29.120 -28.744  0.00  0.00     0.198 C 
BRANCH  27  28
ATOM     28  O6  SGN d   1     -40.032  29.010 -27.401  0.00  0.00    -0.398 OA
ATOM     29  H   SGN d   1     -39.461  28.229 -27.323  0.00  0.00     0.209 HD
ENDBRANCH  27  28
ENDBRANCH   5  27
BRANCH   4  30
ATOM     30  N   SGN d   1     -39.888  24.955 -32.535  0.00  0.00    -0.189 NA
ATOM     31  H   SGN d   1     -39.484  25.401 -33.358  0.00  0.00     0.143 HD
BRANCH  30  32
ATOM     32  S1  SGN d   1     -39.443  23.386 -32.501  0.00  0.00     0.183 S 
ATOM     33  O2S SGN d   1     -39.696  22.806 -31.107  0.00  0.00    -0.582 OA
ATOM     34  O3S SGN d   1     -40.251  22.610 -33.541  0.00  0.00    -0.582 OA
ATOM     35  O1S SGN d   1     -37.953  23.275 -32.831  0.00  0.00    -0.582 OA
ENDBRANCH  30  32
ENDBRANCH   4  30
BRANCH   2  36
ATOM     36  O1  SGN d   1     -41.128  25.261 -29.942  0.00  0.00    -0.369 OA
ATOM     37  H   SGN d   1     -41.223  24.433 -30.438  0.00  0.00     0.212 HD
ENDBRANCH   2  36
TORSDOF 13
ENDMDL
MODEL 46
REMARK VINA RESULT:      -4.7      4.233      6.667
REMARK  13 active torsions:
REMARK  status: ('A' for Active; 'I' for Inactive)
REMARK    1  A    between atoms: C6_1  and  C5_27 
REMARK    2  A    between atoms: C6_1  and  O6_30 
REMARK    3  A    between atoms: O3_2  and  C3_3 
REMARK    4  A    between atoms: C6_4  and  C5_23 
REMARK    5  A    between atoms: C6_4  and  O62_11 
REMARK    6  A    between atoms: C1_6  and  O1_26 
REMARK    7  A    between atoms: C1_7  and  O1_9 
REMARK    8  A    between atoms: O1_9  and  C4_31 
REMARK    9  A    between atoms: C3_10  and  O3_29 
REMARK   10  A    between atoms: S_13  and  O2_22 
REMARK   11  A    between atoms: N_19  and  C2_25 
REMARK   12  A    between atoms: N_19  and  S1_28 
REMARK   13  A    between atoms: C2_20  and  O2_22 
ROOT
ATOM      1  C1  SGN d   1     -34.961  28.171 -27.494  0.00  0.00     0.000 C 
ATOM      2  C2  SGN d   1     -36.368  28.454 -26.997  0.00  0.00     0.000 C 
ATOM      3  C3  SGN d   1     -37.297  28.617 -28.189  0.00  0.00     0.000 C 
ATOM      4  C4  SGN d   1     -36.754  29.686 -29.124  0.00  0.00     0.000 C 
ATOM      5  C5  SGN d   1     -35.319  29.352 -29.498  0.00  0.00     0.000 C 
ATOM      6  O5  SGN d   1     -34.512  29.261 -28.313  0.00  0.00     0.000 OA
ENDROOT
BRANCH   6   7
ATOM      7  O1  SGN d   1     -37.562  29.724 -30.310  0.00  0.00     0.000 OA
BRANCH   7   8
ATOM      8  C1  IDS d   2     -37.467  29.657 -31.740  0.00  0.00     0.000 C 
ATOM      9  C2  IDS d   2     -37.921  28.280 -32.199  0.00  0.00     0.000 C 
ATOM     10  C3  IDS d   2     -38.243  28.329 -33.683  0.00  0.00     0.000 C 
ATOM     11  C4  IDS d   2     -39.448  29.234 -33.881  0.00  0.00     0.000 C 
ATOM     12  C5  IDS d   2     -39.562  30.180 -32.696  0.00  0.00     0.000 C 
ATOM     13  O5  IDS d   2     -38.260  30.681 -32.363  0.00  0.00     0.000 OA
BRANCH   9  14
ATOM     14  O2  IDS d   2     -36.892  27.317 -31.928  0.00  0.00     0.000 OA
BRANCH  14  15
ATOM     15  S   IDS d   2     -37.247  25.987 -31.521  0.00  0.00     0.000 S 
ATOM     16  O3S IDS d   2     -36.881  25.000 -32.632  0.00  0.00     0.000 OA
ATOM     17  O1S IDS d   2     -36.484  25.625 -30.245  0.00  0.00     0.000 OA
ATOM     18  O2S IDS d   2     -38.750  25.917 -31.251  0.00  0.00     0.000 OA
ENDBRANCH  14  15
ENDBRANCH   9  14
BRANCH  10  19
ATOM     19  O3  IDS d   2     -38.561  27.007 -34.146  0.00  0.00     0.000 OA
ATOM     20  H   IDS d   2     -39.518  26.932 -34.279  0.00  0.00     0.000 HD
ENDBRANCH  10  19
BRANCH  12  21
ATOM     21  C6  IDS d   2     -40.476  31.348 -33.069  0.00  0.00     0.000 C 
ATOM     22  O61 IDS d   2     -40.007  32.497 -32.932  0.00  0.00     0.000 OA
BRANCH  21  23
ATOM     23  O62 IDS d   2     -41.613  31.064 -33.507  0.00  0.00     0.000 OA
ENDBRANCH  21  23
ENDBRANCH  12  21
ENDBRANCH   7   8
ENDBRANCH   6   7
BRANCH   1  25
ATOM     25  O3  SGN d   1     -38.600  29.007 -27.731  0.00  0.00    -0.391 OA
ATOM     26  H   SGN d   1     -38.839  28.897 -26.797  0.00  0.00     0.210 HD
ENDBRANCH   1  25
BRANCH   5  27
ATOM     27  C6  SGN d   1     -34.758  30.432 -30.408  0.00  0.00     0.198 C 
BRANCH  27  28
ATOM     28  O6  SGN d   1     -35.178  31.717 -29.942  0.00  0.00    -0.398 OA
ATOM     29  H   SGN d   1     -34.640  31.976 -29.177  0.00  0.00     0.209 HD
ENDBRANCH  27  28
ENDBRANCH   5  27
BRANCH   4  30
ATOM     30  N   SGN d   1     -36.850  27.376 -26.120  0.00  0.00    -0.189 NA
ATOM     31  H   SGN d   1     -36.006  27.780 -25.715  0.00  0.00     0.143 HD
BRANCH  30  32
ATOM     32  S1  SGN d   1     -37.966  27.176 -24.948  0.00  0.00     0.183 S 
ATOM     33  O2S SGN d   1     -38.009  28.418 -24.056  0.00  0.00    -0.582 OA
ATOM     34  O3S SGN d   1     -39.336  26.950 -25.590  0.00  0.00    -0.582 OA
ATOM     35  O1S SGN d   1     -37.599  25.957 -24.100  0.00  0.00    -0.582 OA
ENDBRANCH  30  32
ENDBRANCH   4  30
BRANCH   2  36
ATOM     36  O1  SGN d   1     -34.958  26.958 -28.263  0.00  0.00    -0.369 OA
ATOM     37  H   SGN d   1     -34.644  27.713 -28.785  0.00  0.00     0.212 HD
ENDBRANCH   2  36
TORSDOF 13
ENDMDL
MODEL 47
REMARK VINA RESULT:      -4.7      4.033      6.701
REMARK  13 active torsions:
REMARK  status: ('A' for Active; 'I' for Inactive)
REMARK    1  A    between atoms: C6_1  and  C5_27 
REMARK    2  A    between atoms: C6_1  and  O6_30 
REMARK    3  A    between atoms: O3_2  and  C3_3 
REMARK    4  A    between atoms: C6_4  and  C5_23 
REMARK    5  A    between atoms: C6_4  and  O62_11 
REMARK    6  A    between atoms: C1_6  and  O1_26 
REMARK    7  A    between atoms: C1_7  and  O1_9 
REMARK    8  A    between atoms: O1_9  and  C4_31 
REMARK    9  A    between atoms: C3_10  and  O3_29 
REMARK   10  A    between atoms: S_13  and  O2_22 
REMARK   11  A    between atoms: N_19  and  C2_25 
REMARK   12  A    between atoms: N_19  and  S1_28 
REMARK   13  A    between atoms: C2_20  and  O2_22 
ROOT
ATOM      1  C1  SGN d   1     -36.349  27.876 -32.962  0.00  0.00     0.000 C 
ATOM      2  C2  SGN d   1     -37.168  26.887 -32.149  0.00  0.00     0.000 C 
ATOM      3  C3  SGN d   1     -37.890  27.631 -31.037  0.00  0.00     0.000 C 
ATOM      4  C4  SGN d   1     -36.890  28.420 -30.209  0.00  0.00     0.000 C 
ATOM      5  C5  SGN d   1     -36.069  29.317 -31.122  0.00  0.00     0.000 C 
ATOM      6  O5  SGN d   1     -35.393  28.523 -32.109  0.00  0.00     0.000 OA
ENDROOT
BRANCH   6   7
ATOM      7  O1  SGN d   1     -37.602  29.226 -29.258  0.00  0.00     0.000 OA
BRANCH   7   8
ATOM      8  C1  IDS d   2     -38.738  30.078 -29.461  0.00  0.00     0.000 C 
ATOM      9  C2  IDS d   2     -39.791  29.752 -28.413  0.00  0.00     0.000 C 
ATOM     10  C3  IDS d   2     -40.784  30.899 -28.327  0.00  0.00     0.000 C 
ATOM     11  C4  IDS d   2     -40.055  32.123 -27.795  0.00  0.00     0.000 C 
ATOM     12  C5  IDS d   2     -38.565  31.971 -28.059  0.00  0.00     0.000 C 
ATOM     13  O5  IDS d   2     -38.368  31.465 -29.387  0.00  0.00     0.000 OA
BRANCH   9  14
ATOM     14  O2  IDS d   2     -40.452  28.525 -28.757  0.00  0.00     0.000 OA
BRANCH  14  15
ATOM     15  S   IDS d   2     -40.515  27.455 -27.803  0.00  0.00     0.000 S 
ATOM     16  O3S IDS d   2     -41.488  27.829 -26.683  0.00  0.00     0.000 OA
ATOM     17  O1S IDS d   2     -41.001  26.181 -28.497  0.00  0.00     0.000 OA
ATOM     18  O2S IDS d   2     -39.125  27.213 -27.211  0.00  0.00     0.000 OA
ENDBRANCH  14  15
ENDBRANCH   9  14
BRANCH  10  19
ATOM     19  O3  IDS d   2     -41.843  30.547 -27.423  0.00  0.00     0.000 OA
ATOM     20  H   IDS d   2     -41.726  29.630 -27.130  0.00  0.00     0.000 HD
ENDBRANCH  10  19
BRANCH  12  21
ATOM     21  C6  IDS d   2     -37.888  33.336 -27.929  0.00  0.00     0.000 C 
ATOM     22  O61 IDS d   2     -36.823  33.500 -28.560  0.00  0.00     0.000 OA
BRANCH  21  23
ATOM     23  O62 IDS d   2     -38.465  34.193 -27.223  0.00  0.00     0.000 OA
ENDBRANCH  21  23
ENDBRANCH  12  21
ENDBRANCH   7   8
ENDBRANCH   6   7
BRANCH   1  25
ATOM     25  O3  SGN d   1     -38.566  26.687 -30.192  0.00  0.00    -0.391 OA
ATOM     26  H   SGN d   1     -38.366  25.739 -30.237  0.00  0.00     0.210 HD
ENDBRANCH   1  25
BRANCH   5  27
ATOM     27  C6  SGN d   1     -35.045  30.086 -30.306  0.00  0.00     0.198 C 
BRANCH  27  28
ATOM     28  O6  SGN d   1     -35.564  31.379 -29.980  0.00  0.00    -0.398 OA
ATOM     29  H   SGN d   1     -34.838  32.022 -29.956  0.00  0.00     0.209 HD
ENDBRANCH  27  28
ENDBRANCH   5  27
BRANCH   4  30
ATOM     30  N   SGN d   1     -38.135  26.173 -32.996  0.00  0.00    -0.189 NA
ATOM     31  H   SGN d   1     -37.259  26.238 -33.513  0.00  0.00     0.143 HD
BRANCH  30  32
ATOM     32  S1  SGN d   1     -38.641  24.623 -32.988  0.00  0.00     0.183 S 
ATOM     33  O2S SGN d   1     -39.240  24.280 -31.622  0.00  0.00    -0.582 OA
ATOM     34  O3S SGN d   1     -39.695  24.430 -34.080  0.00  0.00    -0.582 OA
ATOM     35  O1S SGN d   1     -37.453  23.700 -33.265  0.00  0.00    -0.582 OA
ENDBRANCH  30  32
ENDBRANCH   4  30
BRANCH   2  36
ATOM     36  O1  SGN d   1     -37.220  28.859 -33.541  0.00  0.00    -0.369 OA
ATOM     37  H   SGN d   1     -36.971  28.315 -34.304  0.00  0.00     0.212 HD
ENDBRANCH   2  36
TORSDOF 13
ENDMDL
MODEL 48
REMARK VINA RESULT:      -4.7      2.341      4.882
REMARK  13 active torsions:
REMARK  status: ('A' for Active; 'I' for Inactive)
REMARK    1  A    between atoms: C6_1  and  C5_27 
REMARK    2  A    between atoms: C6_1  and  O6_30 
REMARK    3  A    between atoms: O3_2  and  C3_3 
REMARK    4  A    between atoms: C6_4  and  C5_23 
REMARK    5  A    between atoms: C6_4  and  O62_11 
REMARK    6  A    between atoms: C1_6  and  O1_26 
REMARK    7  A    between atoms: C1_7  and  O1_9 
REMARK    8  A    between atoms: O1_9  and  C4_31 
REMARK    9  A    between atoms: C3_10  and  O3_29 
REMARK   10  A    between atoms: S_13  and  O2_22 
REMARK   11  A    between atoms: N_19  and  C2_25 
REMARK   12  A    between atoms: N_19  and  S1_28 
REMARK   13  A    between atoms: C2_20  and  O2_22 
ROOT
ATOM      1  C1  SGN d   1     -37.889  24.660 -33.640  0.00  0.00     0.000 C 
ATOM      2  C2  SGN d   1     -38.770  24.469 -32.417  0.00  0.00     0.000 C 
ATOM      3  C3  SGN d   1     -39.369  25.807 -32.018  0.00  0.00     0.000 C 
ATOM      4  C4  SGN d   1     -38.263  26.830 -31.818  0.00  0.00     0.000 C 
ATOM      5  C5  SGN d   1     -37.393  26.888 -33.064  0.00  0.00     0.000 C 
ATOM      6  O5  SGN d   1     -36.840  25.591 -33.335  0.00  0.00     0.000 OA
ENDROOT
BRANCH   6   7
ATOM      7  O1  SGN d   1     -38.852  28.118 -31.584  0.00  0.00     0.000 OA
BRANCH   7   8
ATOM      8  C1  IDS d   2     -38.942  29.436 -32.143  0.00  0.00     0.000 C 
ATOM      9  C2  IDS d   2     -40.323  29.620 -32.751  0.00  0.00     0.000 C 
ATOM     10  C3  IDS d   2     -40.591  31.103 -32.946  0.00  0.00     0.000 C 
ATOM     11  C4  IDS d   2     -40.665  31.760 -31.577  0.00  0.00     0.000 C 
ATOM     12  C5  IDS d   2     -39.925  30.895 -30.568  0.00  0.00     0.000 C 
ATOM     13  O5  IDS d   2     -38.693  30.441 -31.146  0.00  0.00     0.000 OA
BRANCH   9  14
ATOM     14  O2  IDS d   2     -40.400  28.915 -33.999  0.00  0.00     0.000 OA
BRANCH  14  15
ATOM     15  S   IDS d   2     -41.521  28.062 -34.271  0.00  0.00     0.000 S 
ATOM     16  O3S IDS d   2     -42.196  27.674 -32.953  0.00  0.00     0.000 OA
ATOM     17  O1S IDS d   2     -42.522  28.804 -35.158  0.00  0.00     0.000 OA
ATOM     18  O2S IDS d   2     -41.042  26.800 -34.989  0.00  0.00     0.000 OA
ENDBRANCH  14  15
ENDBRANCH   9  14
BRANCH  10  19
ATOM     19  O3  IDS d   2     -41.844  31.277 -33.625  0.00  0.00     0.000 OA
ATOM     20  H   IDS d   2     -42.397  31.899 -33.129  0.00  0.00     0.000 HD
ENDBRANCH  10  19
BRANCH  12  21
ATOM     21  C6  IDS d   2     -39.625  31.724 -29.318  0.00  0.00     0.000 C 
ATOM     22  O61 IDS d   2     -38.422  31.885 -29.023  0.00  0.00     0.000 OA
BRANCH  21  23
ATOM     23  O62 IDS d   2     -40.605  32.199 -28.701  0.00  0.00     0.000 OA
ENDBRANCH  21  23
ENDBRANCH  12  21
ENDBRANCH   7   8
ENDBRANCH   6   7
BRANCH   1  25
ATOM     25  O3  SGN d   1     -40.102  25.656 -30.793  0.00  0.00    -0.391 OA
ATOM     26  H   SGN d   1     -39.682  26.500 -30.565  0.00  0.00     0.210 HD
ENDBRANCH   1  25
BRANCH   5  27
ATOM     27  C6  SGN d   1     -36.266  27.885 -32.860  0.00  0.00     0.198 C 
BRANCH  27  28
ATOM     28  O6  SGN d   1     -35.801  27.815 -31.509  0.00  0.00    -0.398 OA
ATOM     29  H   SGN d   1     -36.100  28.600 -31.024  0.00  0.00     0.209 HD
ENDBRANCH  27  28
ENDBRANCH   5  27
BRANCH   4  30
ATOM     30  N   SGN d   1     -39.837  23.490 -32.678  0.00  0.00    -0.189 NA
ATOM     31  H   SGN d   1     -38.993  23.150 -33.137  0.00  0.00     0.143 HD
BRANCH  30  32
ATOM     32  S1  SGN d   1     -40.448  22.310 -31.732  0.00  0.00     0.183 S 
ATOM     33  O2S SGN d   1     -41.908  22.048 -32.110  0.00  0.00    -0.582 OA
ATOM     34  O3S SGN d   1     -39.625  21.035 -31.923  0.00  0.00    -0.582 OA
ATOM     35  O1S SGN d   1     -40.375  22.744 -30.268  0.00  0.00    -0.582 OA
ENDBRANCH  30  32
ENDBRANCH   4  30
BRANCH   2  36
ATOM     36  O1  SGN d   1     -38.679  25.166 -34.728  0.00  0.00    -0.369 OA
ATOM     37  H   SGN d   1     -37.894  25.697 -34.525  0.00  0.00     0.212 HD
ENDBRANCH   2  36
TORSDOF 13
ENDMDL
MODEL 49
REMARK VINA RESULT:      -4.7      3.479      6.413
REMARK  13 active torsions:
REMARK  status: ('A' for Active; 'I' for Inactive)
REMARK    1  A    between atoms: C6_1  and  C5_27 
REMARK    2  A    between atoms: C6_1  and  O6_30 
REMARK    3  A    between atoms: O3_2  and  C3_3 
REMARK    4  A    between atoms: C6_4  and  C5_23 
REMARK    5  A    between atoms: C6_4  and  O62_11 
REMARK    6  A    between atoms: C1_6  and  O1_26 
REMARK    7  A    between atoms: C1_7  and  O1_9 
REMARK    8  A    between atoms: O1_9  and  C4_31 
REMARK    9  A    between atoms: C3_10  and  O3_29 
REMARK   10  A    between atoms: S_13  and  O2_22 
REMARK   11  A    between atoms: N_19  and  C2_25 
REMARK   12  A    between atoms: N_19  and  S1_28 
REMARK   13  A    between atoms: C2_20  and  O2_22 
ROOT
ATOM      1  C1  SGN d   1     -37.136  26.579 -33.854  0.00  0.00     0.000 C 
ATOM      2  C2  SGN d   1     -37.275  26.052 -32.435  0.00  0.00     0.000 C 
ATOM      3  C3  SGN d   1     -38.092  27.036 -31.614  0.00  0.00     0.000 C 
ATOM      4  C4  SGN d   1     -37.468  28.420 -31.692  0.00  0.00     0.000 C 
ATOM      5  C5  SGN d   1     -37.300  28.819 -33.150  0.00  0.00     0.000 C 
ATOM      6  O5  SGN d   1     -36.481  27.856 -33.830  0.00  0.00     0.000 OA
ENDROOT
BRANCH   6   7
ATOM      7  O1  SGN d   1     -38.329  29.360 -31.033  0.00  0.00     0.000 OA
BRANCH   7   8
ATOM      8  C1  IDS d   2     -37.610  30.158 -30.082  0.00  0.00     0.000 C 
ATOM      9  C2  IDS d   2     -38.597  30.743 -29.084  0.00  0.00     0.000 C 
ATOM     10  C3  IDS d   2     -37.844  31.210 -27.850  0.00  0.00     0.000 C 
ATOM     11  C4  IDS d   2     -37.253  29.991 -27.161  0.00  0.00     0.000 C 
ATOM     12  C5  IDS d   2     -37.125  28.860 -28.170  0.00  0.00     0.000 C 
ATOM     13  O5  IDS d   2     -36.609  29.381 -29.403  0.00  0.00     0.000 OA
BRANCH   9  14
ATOM     14  O2  IDS d   2     -39.312  31.829 -29.692  0.00  0.00     0.000 OA
BRANCH  14  15
ATOM     15  S   IDS d   2     -40.747  31.809 -29.730  0.00  0.00     0.000 S 
ATOM     16  O3S IDS d   2     -41.212  31.258 -31.079  0.00  0.00     0.000 OA
ATOM     17  O1S IDS d   2     -41.273  30.915 -28.605  0.00  0.00     0.000 OA
ATOM     18  O2S IDS d   2     -41.285  33.229 -29.545  0.00  0.00     0.000 OA
ENDBRANCH  14  15
ENDBRANCH   9  14
BRANCH  10  19
ATOM     19  O3  IDS d   2     -38.755  31.867 -26.955  0.00  0.00     0.000 OA
ATOM     20  H   IDS d   2     -39.200  32.591 -27.421  0.00  0.00     0.000 HD
ENDBRANCH  10  19
BRANCH  12  21
ATOM     21  C6  IDS d   2     -36.163  27.803 -27.623  0.00  0.00     0.000 C 
ATOM     22  O61 IDS d   2     -35.680  27.000 -28.448  0.00  0.00     0.000 OA
BRANCH  21  23
ATOM     23  O62 IDS d   2     -35.914  27.840 -26.398  0.00  0.00     0.000 OA
ENDBRANCH  21  23
ENDBRANCH  12  21
ENDBRANCH   7   8
ENDBRANCH   6   7
BRANCH   1  25
ATOM     25  O3  SGN d   1     -38.122  26.606 -30.244  0.00  0.00    -0.391 OA
ATOM     26  H   SGN d   1     -38.491  27.502 -30.197  0.00  0.00     0.210 HD
ENDBRANCH   1  25
BRANCH   5  27
ATOM     27  C6  SGN d   1     -36.647  30.188 -33.237  0.00  0.00     0.198 C 
BRANCH  27  28
ATOM     28  O6  SGN d   1     -35.546  30.254 -32.327  0.00  0.00    -0.398 OA
ATOM     29  H   SGN d   1     -35.581  29.496 -31.722  0.00  0.00     0.209 HD
ENDBRANCH  27  28
ENDBRANCH   5  27
BRANCH   4  30
ATOM     30  N   SGN d   1     -37.908  24.725 -32.419  0.00  0.00    -0.189 NA
ATOM     31  H   SGN d   1     -37.298  24.446 -31.651  0.00  0.00     0.143 HD
BRANCH  30  32
ATOM     32  S1  SGN d   1     -39.235  23.777 -32.423  0.00  0.00     0.183 S 
ATOM     33  O2S SGN d   1     -39.959  23.904 -33.765  0.00  0.00    -0.582 OA
ATOM     34  O3S SGN d   1     -38.816  22.323 -32.194  0.00  0.00    -0.582 OA
ATOM     35  O1S SGN d   1     -40.174  24.214 -31.298  0.00  0.00    -0.582 OA
ENDBRANCH  30  32
ENDBRANCH   4  30
BRANCH   2  36
ATOM     36  O1  SGN d   1     -38.438  26.718 -34.443  0.00  0.00    -0.369 OA
ATOM     37  H   SGN d   1     -37.688  26.401 -34.970  0.00  0.00     0.212 HD
ENDBRANCH   2  36
TORSDOF 13
ENDMDL
MODEL 50
REMARK VINA RESULT:      -4.7      3.488      6.314
REMARK  13 active torsions:
REMARK  status: ('A' for Active; 'I' for Inactive)
REMARK    1  A    between atoms: C6_1  and  C5_27 
REMARK    2  A    between atoms: C6_1  and  O6_30 
REMARK    3  A    between atoms: O3_2  and  C3_3 
REMARK    4  A    between atoms: C6_4  and  C5_23 
REMARK    5  A    between atoms: C6_4  and  O62_11 
REMARK    6  A    between atoms: C1_6  and  O1_26 
REMARK    7  A    between atoms: C1_7  and  O1_9 
REMARK    8  A    between atoms: O1_9  and  C4_31 
REMARK    9  A    between atoms: C3_10  and  O3_29 
REMARK   10  A    between atoms: S_13  and  O2_22 
REMARK   11  A    between atoms: N_19  and  C2_25 
REMARK   12  A    between atoms: N_19  and  S1_28 
REMARK   13  A    between atoms: C2_20  and  O2_22 
ROOT
ATOM      1  C1  SGN d   1     -37.957  26.602 -33.945  0.00  0.00     0.000 C 
ATOM      2  C2  SGN d   1     -37.471  26.029 -32.624  0.00  0.00     0.000 C 
ATOM      3  C3  SGN d   1     -37.970  26.904 -31.486  0.00  0.00     0.000 C 
ATOM      4  C4  SGN d   1     -37.546  28.345 -31.718  0.00  0.00     0.000 C 
ATOM      5  C5  SGN d   1     -38.010  28.795 -33.094  0.00  0.00     0.000 C 
ATOM      6  O5  SGN d   1     -37.455  27.938 -34.103  0.00  0.00     0.000 OA
ENDROOT
BRANCH   6   7
ATOM      7  O1  SGN d   1     -38.146  29.177 -30.713  0.00  0.00     0.000 OA
BRANCH   7   8
ATOM      8  C1  IDS d   2     -37.188  30.040 -30.087  0.00  0.00     0.000 C 
ATOM      9  C2  IDS d   2     -37.877  30.817 -28.975  0.00  0.00     0.000 C 
ATOM     10  C3  IDS d   2     -36.826  31.387 -28.038  0.00  0.00     0.000 C 
ATOM     11  C4  IDS d   2     -36.126  30.231 -27.343  0.00  0.00     0.000 C 
ATOM     12  C5  IDS d   2     -36.290  28.972 -28.182  0.00  0.00     0.000 C 
ATOM     13  O5  IDS d   2     -36.077  29.292 -29.564  0.00  0.00     0.000 OA
BRANCH   9  14
ATOM     14  O2  IDS d   2     -38.682  31.861 -29.542  0.00  0.00     0.000 OA
BRANCH  14  15
ATOM     15  S   IDS d   2     -40.113  31.764 -29.498  0.00  0.00     0.000 S 
ATOM     16  O3S IDS d   2     -40.659  31.655 -30.923  0.00  0.00     0.000 OA
ATOM     17  O1S IDS d   2     -40.515  30.522 -28.700  0.00  0.00     0.000 OA
ATOM     18  O2S IDS d   2     -40.690  33.010 -28.824  0.00  0.00     0.000 OA
ENDBRANCH  14  15
ENDBRANCH   9  14
BRANCH  10  19
ATOM     19  O3  IDS d   2     -37.464  32.216 -27.054  0.00  0.00     0.000 OA
ATOM     20  H   IDS d   2     -38.014  32.880 -27.497  0.00  0.00     0.000 HD
ENDBRANCH  10  19
BRANCH  12  21
ATOM     21  C6  IDS d   2     -35.260  27.932 -27.737  0.00  0.00     0.000 C 
ATOM     22  O61 IDS d   2     -34.535  28.235 -26.766  0.00  0.00     0.000 OA
BRANCH  21  23
ATOM     23  O62 IDS d   2     -35.239  26.848 -28.362  0.00  0.00     0.000 OA
ENDBRANCH  21  23
ENDBRANCH  12  21
ENDBRANCH   7   8
ENDBRANCH   6   7
BRANCH   1  25
ATOM     25  O3  SGN d   1     -37.412  26.440 -30.247  0.00  0.00    -0.391 OA
ATOM     26  H   SGN d   1     -38.150  27.002 -29.963  0.00  0.00     0.210 HD
ENDBRANCH   1  25
BRANCH   5  27
ATOM     27  C6  SGN d   1     -37.563  30.225 -33.346  0.00  0.00     0.198 C 
BRANCH  27  28
ATOM     28  O6  SGN d   1     -38.650  31.120 -33.092  0.00  0.00    -0.398 OA
ATOM     29  H   SGN d   1     -39.450  30.608 -32.894  0.00  0.00     0.209 HD
ENDBRANCH  27  28
ENDBRANCH   5  27
BRANCH   4  30
ATOM     30  N   SGN d   1     -37.932  24.644 -32.443  0.00  0.00    -0.189 NA
ATOM     31  H   SGN d   1     -37.285  24.376 -31.702  0.00  0.00     0.143 HD
BRANCH  30  32
ATOM     32  S1  SGN d   1     -39.236  23.666 -32.396  0.00  0.00     0.183 S 
ATOM     33  O2S SGN d   1     -38.797  22.232 -32.090  0.00  0.00    -0.582 OA
ATOM     34  O3S SGN d   1     -40.197  24.157 -31.312  0.00  0.00    -0.582 OA
ATOM     35  O1S SGN d   1     -39.944  23.699 -33.751  0.00  0.00    -0.582 OA
ENDBRANCH  30  32
ENDBRANCH   4  30
BRANCH   2  36
ATOM     36  O1  SGN d   1     -39.393  26.622 -33.961  0.00  0.00    -0.369 OA
ATOM     37  H   SGN d   1     -39.235  25.842 -34.515  0.00  0.00     0.212 HD
ENDBRANCH   2  36
TORSDOF 13
ENDMDL
MODEL 51
REMARK VINA RESULT:      -4.7      4.057      6.782
REMARK  13 active torsions:
REMARK  status: ('A' for Active; 'I' for Inactive)
REMARK    1  A    between atoms: C6_1  and  C5_27 
REMARK    2  A    between atoms: C6_1  and  O6_30 
REMARK    3  A    between atoms: O3_2  and  C3_3 
REMARK    4  A    between atoms: C6_4  and  C5_23 
REMARK    5  A    between atoms: C6_4  and  O62_11 
REMARK    6  A    between atoms: C1_6  and  O1_26 
REMARK    7  A    between atoms: C1_7  and  O1_9 
REMARK    8  A    between atoms: O1_9  and  C4_31 
REMARK    9  A    between atoms: C3_10  and  O3_29 
REMARK   10  A    between atoms: S_13  and  O2_22 
REMARK   11  A    between atoms: N_19  and  C2_25 
REMARK   12  A    between atoms: N_19  and  S1_28 
REMARK   13  A    between atoms: C2_20  and  O2_22 
ROOT
ATOM      1  C1  SGN d   1     -36.797  27.352 -33.168  0.00  0.00     0.000 C 
ATOM      2  C2  SGN d   1     -37.621  26.535 -32.186  0.00  0.00     0.000 C 
ATOM      3  C3  SGN d   1     -38.240  27.467 -31.156  0.00  0.00     0.000 C 
ATOM      4  C4  SGN d   1     -37.155  28.302 -30.496  0.00  0.00     0.000 C 
ATOM      5  C5  SGN d   1     -36.341  29.013 -31.565  0.00  0.00     0.000 C 
ATOM      6  O5  SGN d   1     -35.763  28.052 -32.461  0.00  0.00     0.000 OA
ENDROOT
BRANCH   6   7
ATOM      7  O1  SGN d   1     -37.770  29.272 -29.636  0.00  0.00     0.000 OA
BRANCH   7   8
ATOM      8  C1  IDS d   2     -37.348  28.954 -28.302  0.00  0.00     0.000 C 
ATOM      9  C2  IDS d   2     -37.575  30.166 -27.411  0.00  0.00     0.000 C 
ATOM     10  C3  IDS d   2     -37.555  29.728 -25.957  0.00  0.00     0.000 C 
ATOM     11  C4  IDS d   2     -38.751  28.823 -25.713  0.00  0.00     0.000 C 
ATOM     12  C5  IDS d   2     -39.206  28.230 -27.038  0.00  0.00     0.000 C 
ATOM     13  O5  IDS d   2     -38.058  27.814 -27.790  0.00  0.00     0.000 OA
BRANCH   9  14
ATOM     14  O2  IDS d   2     -36.561  31.150 -27.666  0.00  0.00     0.000 OA
BRANCH  14  15
ATOM     15  S   IDS d   2     -36.937  32.501 -27.973  0.00  0.00     0.000 S 
ATOM     16  O3S IDS d   2     -35.791  33.191 -28.715  0.00  0.00     0.000 OA
ATOM     17  O1S IDS d   2     -38.186  32.493 -28.857  0.00  0.00     0.000 OA
ATOM     18  O2S IDS d   2     -37.235  33.257 -26.678  0.00  0.00     0.000 OA
ENDBRANCH  14  15
ENDBRANCH   9  14
BRANCH  10  19
ATOM     19  O3  IDS d   2     -37.653  30.884 -25.110  0.00  0.00     0.000 OA
ATOM     20  H   IDS d   2     -37.562  30.614 -24.183  0.00  0.00     0.000 HD
ENDBRANCH  10  19
BRANCH  12  21
ATOM     21  C6  IDS d   2     -40.102  27.019 -26.767  0.00  0.00     0.000 C 
ATOM     22  O61 IDS d   2     -40.204  26.647 -25.580  0.00  0.00     0.000 OA
BRANCH  21  23
ATOM     23  O62 IDS d   2     -40.683  26.510 -27.751  0.00  0.00     0.000 OA
ENDBRANCH  21  23
ENDBRANCH  12  21
ENDBRANCH   7   8
ENDBRANCH   6   7
BRANCH   1  25
ATOM     25  O3  SGN d   1     -38.916  26.691 -30.156  0.00  0.00    -0.391 OA
ATOM     26  H   SGN d   1     -39.069  25.742 -30.286  0.00  0.00     0.210 HD
ENDBRANCH   1  25
BRANCH   5  27
ATOM     27  C6  SGN d   1     -35.234  29.826 -30.915  0.00  0.00     0.198 C 
BRANCH  27  28
ATOM     28  O6  SGN d   1     -35.720  31.134 -30.600  0.00  0.00    -0.398 OA
ATOM     29  H   SGN d   1     -35.263  31.467 -29.811  0.00  0.00     0.209 HD
ENDBRANCH  27  28
ENDBRANCH   5  27
BRANCH   4  30
ATOM     30  N   SGN d   1     -38.670  25.770 -32.877  0.00  0.00    -0.189 NA
ATOM     31  H   SGN d   1     -38.073  26.061 -33.651  0.00  0.00     0.143 HD
BRANCH  30  32
ATOM     32  S1  SGN d   1     -38.729  24.141 -32.826  0.00  0.00     0.183 S 
ATOM     33  O2S SGN d   1     -37.404  23.559 -33.323  0.00  0.00    -0.582 OA
ATOM     34  O3S SGN d   1     -38.986  23.691 -31.386  0.00  0.00    -0.582 OA
ATOM     35  O1S SGN d   1     -39.866  23.646 -33.720  0.00  0.00    -0.582 OA
ENDBRANCH  30  32
ENDBRANCH   4  30
BRANCH   2  36
ATOM     36  O1  SGN d   1     -37.647  28.296 -33.838  0.00  0.00    -0.369 OA
ATOM     37  H   SGN d   1     -38.157  28.849 -33.225  0.00  0.00     0.212 HD
ENDBRANCH   2  36
TORSDOF 13
ENDMDL
MODEL 52
REMARK VINA RESULT:      -4.7      3.593      5.992
REMARK  13 active torsions:
REMARK  status: ('A' for Active; 'I' for Inactive)
REMARK    1  A    between atoms: C6_1  and  C5_27 
REMARK    2  A    between atoms: C6_1  and  O6_30 
REMARK    3  A    between atoms: O3_2  and  C3_3 
REMARK    4  A    between atoms: C6_4  and  C5_23 
REMARK    5  A    between atoms: C6_4  and  O62_11 
REMARK    6  A    between atoms: C1_6  and  O1_26 
REMARK    7  A    between atoms: C1_7  and  O1_9 
REMARK    8  A    between atoms: O1_9  and  C4_31 
REMARK    9  A    between atoms: C3_10  and  O3_29 
REMARK   10  A    between atoms: S_13  and  O2_22 
REMARK   11  A    between atoms: N_19  and  C2_25 
REMARK   12  A    between atoms: N_19  and  S1_28 
REMARK   13  A    between atoms: C2_20  and  O2_22 
ROOT
ATOM      1  C1  SGN d   1     -39.444  26.930 -33.731  0.00  0.00     0.000 C 
ATOM      2  C2  SGN d   1     -38.299  25.933 -33.653  0.00  0.00     0.000 C 
ATOM      3  C3  SGN d   1     -37.383  26.313 -32.501  0.00  0.00     0.000 C 
ATOM      4  C4  SGN d   1     -36.926  27.754 -32.657  0.00  0.00     0.000 C 
ATOM      5  C5  SGN d   1     -38.140  28.658 -32.807  0.00  0.00     0.000 C 
ATOM      6  O5  SGN d   1     -38.919  28.249 -33.942  0.00  0.00     0.000 OA
ENDROOT
BRANCH   6   7
ATOM      7  O1  SGN d   1     -36.182  28.139 -31.491  0.00  0.00     0.000 OA
BRANCH   7   8
ATOM      8  C1  IDS d   2     -36.315  28.889 -30.276  0.00  0.00     0.000 C 
ATOM      9  C2  IDS d   2     -36.085  27.958 -29.095  0.00  0.00     0.000 C 
ATOM     10  C3  IDS d   2     -35.789  28.786 -27.856  0.00  0.00     0.000 C 
ATOM     11  C4  IDS d   2     -34.465  29.502 -28.065  0.00  0.00     0.000 C 
ATOM     12  C5  IDS d   2     -34.185  29.609 -29.556  0.00  0.00     0.000 C 
ATOM     13  O5  IDS d   2     -35.388  29.987 -30.239  0.00  0.00     0.000 OA
BRANCH   9  14
ATOM     14  O2  IDS d   2     -37.243  27.133 -28.898  0.00  0.00     0.000 OA
BRANCH  14  15
ATOM     15  S   IDS d   2     -38.535  27.739 -28.745  0.00  0.00     0.000 S 
ATOM     16  O3S IDS d   2     -39.482  27.194 -29.817  0.00  0.00     0.000 OA
ATOM     17  O1S IDS d   2     -39.091  27.409 -27.358  0.00  0.00     0.000 OA
ATOM     18  O2S IDS d   2     -38.412  29.256 -28.896  0.00  0.00     0.000 OA
ENDBRANCH  14  15
ENDBRANCH   9  14
BRANCH  10  19
ATOM     19  O3  IDS d   2     -35.685  27.919 -26.717  0.00  0.00     0.000 OA
ATOM     20  H   IDS d   2     -36.113  28.336 -25.953  0.00  0.00     0.000 HD
ENDBRANCH  10  19
BRANCH  12  21
ATOM     21  C6  IDS d   2     -33.111  30.672 -29.793  0.00  0.00     0.000 C 
ATOM     22  O61 IDS d   2     -32.068  30.583 -29.112  0.00  0.00     0.000 OA
BRANCH  21  23
ATOM     23  O62 IDS d   2     -33.347  31.535 -30.668  0.00  0.00     0.000 OA
ENDBRANCH  21  23
ENDBRANCH  12  21
ENDBRANCH   7   8
ENDBRANCH   6   7
BRANCH   1  25
ATOM     25  O3  SGN d   1     -36.235  25.450 -32.499  0.00  0.00    -0.391 OA
ATOM     26  H   SGN d   1     -36.560  24.568 -32.259  0.00  0.00     0.210 HD
ENDBRANCH   1  25
BRANCH   5  27
ATOM     27  C6  SGN d   1     -37.692  30.097 -32.995  0.00  0.00     0.198 C 
BRANCH  27  28
ATOM     28  O6  SGN d   1     -36.310  30.125 -33.363  0.00  0.00    -0.398 OA
ATOM     29  H   SGN d   1     -35.769  29.835 -32.611  0.00  0.00     0.209 HD
ENDBRANCH  27  28
ENDBRANCH   5  27
BRANCH   4  30
ATOM     30  N   SGN d   1     -38.799  24.561 -33.475  0.00  0.00    -0.189 NA
ATOM     31  H   SGN d   1     -37.958  24.089 -33.807  0.00  0.00     0.143 HD
BRANCH  30  32
ATOM     32  S1  SGN d   1     -39.653  23.539 -32.534  0.00  0.00     0.183 S 
ATOM     33  O2S SGN d   1     -40.072  24.251 -31.245  0.00  0.00    -0.582 OA
ATOM     34  O3S SGN d   1     -40.893  23.070 -33.295  0.00  0.00    -0.582 OA
ATOM     35  O1S SGN d   1     -38.786  22.328 -32.183  0.00  0.00    -0.582 OA
ENDBRANCH  30  32
ENDBRANCH   4  30
BRANCH   2  36
ATOM     36  O1  SGN d   1     -40.191  26.900 -32.505  0.00  0.00    -0.369 OA
ATOM     37  H   SGN d   1     -40.783  26.474 -33.144  0.00  0.00     0.212 HD
ENDBRANCH   2  36
TORSDOF 13
ENDMDL
MODEL 53
REMARK VINA RESULT:      -4.7      3.694      7.179
REMARK  13 active torsions:
REMARK  status: ('A' for Active; 'I' for Inactive)
REMARK    1  A    between atoms: C6_1  and  C5_27 
REMARK    2  A    between atoms: C6_1  and  O6_30 
REMARK    3  A    between atoms: O3_2  and  C3_3 
REMARK    4  A    between atoms: C6_4  and  C5_23 
REMARK    5  A    between atoms: C6_4  and  O62_11 
REMARK    6  A    between atoms: C1_6  and  O1_26 
REMARK    7  A    between atoms: C1_7  and  O1_9 
REMARK    8  A    between atoms: O1_9  and  C4_31 
REMARK    9  A    between atoms: C3_10  and  O3_29 
REMARK   10  A    between atoms: S_13  and  O2_22 
REMARK   11  A    between atoms: N_19  and  C2_25 
REMARK   12  A    between atoms: N_19  and  S1_28 
REMARK   13  A    between atoms: C2_20  and  O2_22 
ROOT
ATOM      1  C1  SGN d   1     -34.832  29.842 -30.479  0.00  0.00     0.000 C 
ATOM      2  C2  SGN d   1     -36.039  30.120 -29.599  0.00  0.00     0.000 C 
ATOM      3  C3  SGN d   1     -36.894  28.866 -29.512  0.00  0.00     0.000 C 
ATOM      4  C4  SGN d   1     -37.255  28.388 -30.909  0.00  0.00     0.000 C 
ATOM      5  C5  SGN d   1     -35.987  28.218 -31.731  0.00  0.00     0.000 C 
ATOM      6  O5  SGN d   1     -35.272  29.461 -31.791  0.00  0.00     0.000 OA
ENDROOT
BRANCH   6   7
ATOM      7  O1  SGN d   1     -37.936  27.128 -30.812  0.00  0.00     0.000 OA
BRANCH   7   8
ATOM      8  C1  IDS d   2     -39.230  27.267 -31.415  0.00  0.00     0.000 C 
ATOM      9  C2  IDS d   2     -39.827  25.885 -31.625  0.00  0.00     0.000 C 
ATOM     10  C3  IDS d   2     -41.325  26.014 -31.842  0.00  0.00     0.000 C 
ATOM     11  C4  IDS d   2     -41.952  26.529 -30.557  0.00  0.00     0.000 C 
ATOM     12  C5  IDS d   2     -40.890  27.245 -29.736  0.00  0.00     0.000 C 
ATOM     13  O5  IDS d   2     -40.100  28.072 -30.601  0.00  0.00     0.000 OA
BRANCH   9  14
ATOM     14  O2  IDS d   2     -39.197  25.252 -32.749  0.00  0.00     0.000 OA
BRANCH  14  15
ATOM     15  S   IDS d   2     -38.891  23.850 -32.702  0.00  0.00     0.000 S 
ATOM     16  O3S IDS d   2     -39.848  23.091 -33.624  0.00  0.00     0.000 OA
ATOM     17  O1S IDS d   2     -37.451  23.628 -33.166  0.00  0.00     0.000 OA
ATOM     18  O2S IDS d   2     -39.049  23.339 -31.270  0.00  0.00     0.000 OA
ENDBRANCH  14  15
ENDBRANCH   9  14
BRANCH  10  19
ATOM     19  O3  IDS d   2     -41.875  24.725 -32.155  0.00  0.00     0.000 OA
ATOM     20  H   IDS d   2     -42.228  24.319 -31.349  0.00  0.00     0.000 HD
ENDBRANCH  10  19
BRANCH  12  21
ATOM     21  C6  IDS d   2     -41.572  28.118 -28.681  0.00  0.00     0.000 C 
ATOM     22  O61 IDS d   2     -41.246  29.323 -28.649  0.00  0.00     0.000 OA
BRANCH  21  23
ATOM     23  O62 IDS d   2     -42.423  27.566 -27.949  0.00  0.00     0.000 OA
ENDBRANCH  21  23
ENDBRANCH  12  21
ENDBRANCH   7   8
ENDBRANCH   6   7
BRANCH   1  25
ATOM     25  O3  SGN d   1     -38.097  29.157 -28.785  0.00  0.00    -0.391 OA
ATOM     26  H   SGN d   1     -38.558  28.722 -29.520  0.00  0.00     0.210 HD
ENDBRANCH   1  25
BRANCH   5  27
ATOM     27  C6  SGN d   1     -36.341  27.771 -33.139  0.00  0.00     0.198 C 
BRANCH  27  28
ATOM     28  O6  SGN d   1     -36.352  26.341 -33.200  0.00  0.00    -0.398 OA
ATOM     29  H   SGN d   1     -35.557  25.993 -32.766  0.00  0.00     0.209 HD
ENDBRANCH  27  28
ENDBRANCH   5  27
BRANCH   4  30
ATOM     30  N   SGN d   1     -35.630  30.551 -28.254  0.00  0.00    -0.189 NA
ATOM     31  H   SGN d   1     -36.474  31.106 -28.112  0.00  0.00     0.143 HD
BRANCH  30  32
ATOM     32  S1  SGN d   1     -34.983  30.178 -26.804  0.00  0.00     0.183 S 
ATOM     33  O2S SGN d   1     -34.224  28.852 -26.902  0.00  0.00    -0.582 OA
ATOM     34  O3S SGN d   1     -34.027  31.292 -26.376  0.00  0.00    -0.582 OA
ATOM     35  O1S SGN d   1     -36.101  30.045 -25.769  0.00  0.00    -0.582 OA
ENDBRANCH  30  32
ENDBRANCH   4  30
BRANCH   2  36
ATOM     36  O1  SGN d   1     -34.054  28.780 -29.906  0.00  0.00    -0.369 OA
ATOM     37  H   SGN d   1     -34.190  28.395 -29.026  0.00  0.00     0.212 HD
ENDBRANCH   2  36
TORSDOF 13
ENDMDL
MODEL 54
REMARK VINA RESULT:      -4.7      3.277      5.210
REMARK  13 active torsions:
REMARK  status: ('A' for Active; 'I' for Inactive)
REMARK    1  A    between atoms: C6_1  and  C5_27 
REMARK    2  A    between atoms: C6_1  and  O6_30 
REMARK    3  A    between atoms: O3_2  and  C3_3 
REMARK    4  A    between atoms: C6_4  and  C5_23 
REMARK    5  A    between atoms: C6_4  and  O62_11 
REMARK    6  A    between atoms: C1_6  and  O1_26 
REMARK    7  A    between atoms: C1_7  and  O1_9 
REMARK    8  A    between atoms: O1_9  and  C4_31 
REMARK    9  A    between atoms: C3_10  and  O3_29 
REMARK   10  A    between atoms: S_13  and  O2_22 
REMARK   11  A    between atoms: N_19  and  C2_25 
REMARK   12  A    between atoms: N_19  and  S1_28 
REMARK   13  A    between atoms: C2_20  and  O2_22 
ROOT
ATOM      1  C1  SGN d   1     -37.499  26.740 -33.665  0.00  0.00     0.000 C 
ATOM      2  C2  SGN d   1     -36.967  25.704 -32.688  0.00  0.00     0.000 C 
ATOM      3  C3  SGN d   1     -37.002  26.279 -31.282  0.00  0.00     0.000 C 
ATOM      4  C4  SGN d   1     -36.247  27.597 -31.243  0.00  0.00     0.000 C 
ATOM      5  C5  SGN d   1     -36.801  28.531 -32.307  0.00  0.00     0.000 C 
ATOM      6  O5  SGN d   1     -36.686  27.921 -33.602  0.00  0.00     0.000 OA
ENDROOT
BRANCH   6   7
ATOM      7  O1  SGN d   1     -36.412  28.193 -29.948  0.00  0.00     0.000 OA
BRANCH   7   8
ATOM      8  C1  IDS d   2     -37.474  28.828 -29.222  0.00  0.00     0.000 C 
ATOM      9  C2  IDS d   2     -37.171  30.313 -29.103  0.00  0.00     0.000 C 
ATOM     10  C3  IDS d   2     -38.446  31.057 -28.744  0.00  0.00     0.000 C 
ATOM     11  C4  IDS d   2     -39.414  30.938 -29.910  0.00  0.00     0.000 C 
ATOM     12  C5  IDS d   2     -39.044  29.721 -30.743  0.00  0.00     0.000 C 
ATOM     13  O5  IDS d   2     -38.741  28.624 -29.871  0.00  0.00     0.000 OA
BRANCH   9  14
ATOM     14  O2  IDS d   2     -36.157  30.521 -28.109  0.00  0.00     0.000 OA
BRANCH  14  15
ATOM     15  S   IDS d   2     -34.931  31.177 -28.465  0.00  0.00     0.000 S 
ATOM     16  O3S IDS d   2     -34.238  31.681 -27.197  0.00  0.00     0.000 OA
ATOM     17  O1S IDS d   2     -34.016  30.188 -29.188  0.00  0.00     0.000 OA
ATOM     18  O2S IDS d   2     -35.231  32.360 -29.386  0.00  0.00     0.000 OA
ENDBRANCH  14  15
ENDBRANCH   9  14
BRANCH  10  19
ATOM     19  O3  IDS d   2     -38.142  32.442 -28.518  0.00  0.00     0.000 OA
ATOM     20  H   IDS d   2     -38.959  32.922 -28.309  0.00  0.00     0.000 HD
ENDBRANCH  10  19
BRANCH  12  21
ATOM     21  C6  IDS d   2     -40.226  29.346 -31.640  0.00  0.00     0.000 C 
ATOM     22  O61 IDS d   2     -40.644  30.227 -32.420  0.00  0.00     0.000 OA
BRANCH  21  23
ATOM     23  O62 IDS d   2     -40.666  28.179 -31.543  0.00  0.00     0.000 OA
ENDBRANCH  21  23
ENDBRANCH  12  21
ENDBRANCH   7   8
ENDBRANCH   6   7
BRANCH   1  25
ATOM     25  O3  SGN d   1     -36.387  25.353 -30.373  0.00  0.00    -0.391 OA
ATOM     26  H   SGN d   1     -36.867  24.511 -30.395  0.00  0.00     0.210 HD
ENDBRANCH   1  25
BRANCH   5  27
ATOM     27  C6  SGN d   1     -36.030  29.840 -32.296  0.00  0.00     0.198 C 
BRANCH  27  28
ATOM     28  O6  SGN d   1     -36.507  30.687 -33.346  0.00  0.00    -0.398 OA
ATOM     29  H   SGN d   1     -37.130  31.335 -32.981  0.00  0.00     0.209 HD
ENDBRANCH  27  28
ENDBRANCH   5  27
BRANCH   4  30
ATOM     30  N   SGN d   1     -37.752  24.462 -32.751  0.00  0.00    -0.189 NA
ATOM     31  H   SGN d   1     -37.024  23.861 -32.364  0.00  0.00     0.143 HD
BRANCH  30  32
ATOM     32  S1  SGN d   1     -39.204  23.751 -32.537  0.00  0.00     0.183 S 
ATOM     33  O2S SGN d   1     -39.013  22.335 -31.990  0.00  0.00    -0.582 OA
ATOM     34  O3S SGN d   1     -40.031  24.581 -31.553  0.00  0.00    -0.582 OA
ATOM     35  O1S SGN d   1     -39.936  23.680 -33.878  0.00  0.00    -0.582 OA
ENDBRANCH  30  32
ENDBRANCH   4  30
BRANCH   2  36
ATOM     36  O1  SGN d   1     -38.854  27.071 -33.324  0.00  0.00    -0.369 OA
ATOM     37  H   SGN d   1     -39.444  26.447 -32.872  0.00  0.00     0.212 HD
ENDBRANCH   2  36
TORSDOF 13
ENDMDL
MODEL 55
REMARK VINA RESULT:      -4.7      2.267      3.197
REMARK  13 active torsions:
REMARK  status: ('A' for Active; 'I' for Inactive)
REMARK    1  A    between atoms: C6_1  and  C5_27 
REMARK    2  A    between atoms: C6_1  and  O6_30 
REMARK    3  A    between atoms: O3_2  and  C3_3 
REMARK    4  A    between atoms: C6_4  and  C5_23 
REMARK    5  A    between atoms: C6_4  and  O62_11 
REMARK    6  A    between atoms: C1_6  and  O1_26 
REMARK    7  A    between atoms: C1_7  and  O1_9 
REMARK    8  A    between atoms: O1_9  and  C4_31 
REMARK    9  A    between atoms: C3_10  and  O3_29 
REMARK   10  A    between atoms: S_13  and  O2_22 
REMARK   11  A    between atoms: N_19  and  C2_25 
REMARK   12  A    between atoms: N_19  and  S1_28 
REMARK   13  A    between atoms: C2_20  and  O2_22 
ROOT
ATOM      1  C1  SGN d   1     -41.723  24.095 -32.955  0.00  0.00     0.000 C 
ATOM      2  C2  SGN d   1     -40.234  23.790 -32.938  0.00  0.00     0.000 C 
ATOM      3  C3  SGN d   1     -39.549  24.697 -31.929  0.00  0.00     0.000 C 
ATOM      4  C4  SGN d   1     -39.869  26.150 -32.238  0.00  0.00     0.000 C 
ATOM      5  C5  SGN d   1     -41.377  26.333 -32.311  0.00  0.00     0.000 C 
ATOM      6  O5  SGN d   1     -41.927  25.469 -33.318  0.00  0.00     0.000 OA
ENDROOT
BRANCH   6   7
ATOM      7  O1  SGN d   1     -39.335  26.979 -31.196  0.00  0.00     0.000 OA
BRANCH   7   8
ATOM      8  C1  IDS d   2     -38.872  28.300 -31.509  0.00  0.00     0.000 C 
ATOM      9  C2  IDS d   2     -37.466  28.473 -30.955  0.00  0.00     0.000 C 
ATOM     10  C3  IDS d   2     -36.803  29.660 -31.634  0.00  0.00     0.000 C 
ATOM     11  C4  IDS d   2     -36.616  29.326 -33.105  0.00  0.00     0.000 C 
ATOM     12  C5  IDS d   2     -37.603  28.240 -33.500  0.00  0.00     0.000 C 
ATOM     13  O5  IDS d   2     -38.885  28.533 -32.927  0.00  0.00     0.000 OA
BRANCH   9  14
ATOM     14  O2  IDS d   2     -37.526  28.661 -29.534  0.00  0.00     0.000 OA
BRANCH  14  15
ATOM     15  S   IDS d   2     -36.776  27.799 -28.665  0.00  0.00     0.000 S 
ATOM     16  O3S IDS d   2     -37.650  27.388 -27.478  0.00  0.00     0.000 OA
ATOM     17  O1S IDS d   2     -36.343  26.552 -29.437  0.00  0.00     0.000 OA
ATOM     18  O2S IDS d   2     -35.537  28.537 -28.156  0.00  0.00     0.000 OA
ENDBRANCH  14  15
ENDBRANCH   9  14
BRANCH  10  19
ATOM     19  O3  IDS d   2     -35.521  29.898 -31.033  0.00  0.00     0.000 OA
ATOM     20  H   IDS d   2     -35.638  30.116 -30.096  0.00  0.00     0.000 HD
ENDBRANCH  10  19
BRANCH  12  21
ATOM     21  C6  IDS d   2     -37.725  28.199 -35.025  0.00  0.00     0.000 C 
ATOM     22  O61 IDS d   2     -36.661  28.236 -35.677  0.00  0.00     0.000 OA
BRANCH  21  23
ATOM     23  O62 IDS d   2     -38.878  28.105 -35.501  0.00  0.00     0.000 OA
ENDBRANCH  21  23
ENDBRANCH  12  21
ENDBRANCH   7   8
ENDBRANCH   6   7
BRANCH   1  25
ATOM     25  O3  SGN d   1     -38.128  24.500 -31.997  0.00  0.00    -0.391 OA
ATOM     26  H   SGN d   1     -37.846  23.576 -32.081  0.00  0.00     0.210 HD
ENDBRANCH   1  25
BRANCH   5  27
ATOM     27  C6  SGN d   1     -41.706  27.776 -32.652  0.00  0.00     0.198 C 
BRANCH  27  28
ATOM     28  O6  SGN d   1     -41.424  28.020 -34.033  0.00  0.00    -0.398 OA
ATOM     29  H   SGN d   1     -40.645  27.505 -34.299  0.00  0.00     0.209 HD
ENDBRANCH  27  28
ENDBRANCH   5  27
BRANCH   4  30
ATOM     30  N   SGN d   1     -39.984  22.379 -32.607  0.00  0.00    -0.189 NA
ATOM     31  H   SGN d   1     -38.971  22.303 -32.705  0.00  0.00     0.143 HD
BRANCH  30  32
ATOM     32  S1  SGN d   1     -40.514  21.211 -31.599  0.00  0.00     0.183 S 
ATOM     33  O2S SGN d   1     -39.531  20.038 -31.603  0.00  0.00    -0.582 OA
ATOM     34  O3S SGN d   1     -40.634  21.783 -30.185  0.00  0.00    -0.582 OA
ATOM     35  O1S SGN d   1     -41.886  20.723 -32.066  0.00  0.00    -0.582 OA
ENDBRANCH  30  32
ENDBRANCH   4  30
BRANCH   2  36
ATOM     36  O1  SGN d   1     -42.277  23.854 -31.652  0.00  0.00    -0.369 OA
ATOM     37  H   SGN d   1     -41.956  23.107 -31.123  0.00  0.00     0.212 HD
ENDBRANCH   2  36
TORSDOF 13
ENDMDL
MODEL 56
REMARK VINA RESULT:      -4.6      2.636      4.937
REMARK  13 active torsions:
REMARK  status: ('A' for Active; 'I' for Inactive)
REMARK    1  A    between atoms: C6_1  and  C5_27 
REMARK    2  A    between atoms: C6_1  and  O6_30 
REMARK    3  A    between atoms: O3_2  and  C3_3 
REMARK    4  A    between atoms: C6_4  and  C5_23 
REMARK    5  A    between atoms: C6_4  and  O62_11 
REMARK    6  A    between atoms: C1_6  and  O1_26 
REMARK    7  A    between atoms: C1_7  and  O1_9 
REMARK    8  A    between atoms: O1_9  and  C4_31 
REMARK    9  A    between atoms: C3_10  and  O3_29 
REMARK   10  A    between atoms: S_13  and  O2_22 
REMARK   11  A    between atoms: N_19  and  C2_25 
REMARK   12  A    between atoms: N_19  and  S1_28 
REMARK   13  A    between atoms: C2_20  and  O2_22 
ROOT
ATOM      1  C1  SGN d   1     -37.955  24.464 -34.235  0.00  0.00     0.000 C 
ATOM      2  C2  SGN d   1     -38.369  24.345 -32.777  0.00  0.00     0.000 C 
ATOM      3  C3  SGN d   1     -39.229  25.541 -32.403  0.00  0.00     0.000 C 
ATOM      4  C4  SGN d   1     -38.491  26.830 -32.724  0.00  0.00     0.000 C 
ATOM      5  C5  SGN d   1     -38.052  26.815 -34.179  0.00  0.00     0.000 C 
ATOM      6  O5  SGN d   1     -37.212  25.677 -34.426  0.00  0.00     0.000 OA
ENDROOT
BRANCH   6   7
ATOM      7  O1  SGN d   1     -39.371  27.942 -32.499  0.00  0.00     0.000 OA
BRANCH   7   8
ATOM      8  C1  IDS d   2     -38.768  29.042 -31.803  0.00  0.00     0.000 C 
ATOM      9  C2  IDS d   2     -39.863  29.870 -31.148  0.00  0.00     0.000 C 
ATOM     10  C3  IDS d   2     -39.249  30.751 -30.074  0.00  0.00     0.000 C 
ATOM     11  C4  IDS d   2     -38.711  29.855 -28.971  0.00  0.00     0.000 C 
ATOM     12  C5  IDS d   2     -38.459  28.465 -29.534  0.00  0.00     0.000 C 
ATOM     13  O5  IDS d   2     -37.829  28.581 -30.817  0.00  0.00     0.000 OA
BRANCH   9  14
ATOM     14  O2  IDS d   2     -40.531  30.660 -32.143  0.00  0.00     0.000 OA
BRANCH  14  15
ATOM     15  S   IDS d   2     -41.957  30.579 -32.282  0.00  0.00     0.000 S 
ATOM     16  O3S IDS d   2     -42.356  31.012 -33.695  0.00  0.00     0.000 OA
ATOM     17  O1S IDS d   2     -42.411  29.138 -32.042  0.00  0.00     0.000 OA
ATOM     18  O2S IDS d   2     -42.625  31.500 -31.259  0.00  0.00     0.000 OA
ENDBRANCH  14  15
ENDBRANCH   9  14
BRANCH  10  19
ATOM     19  O3  IDS d   2     -40.259  31.617 -29.533  0.00  0.00     0.000 OA
ATOM     20  H   IDS d   2     -40.221  31.592 -28.565  0.00  0.00     0.000 HD
ENDBRANCH  10  19
BRANCH  12  21
ATOM     21  C6  IDS d   2     -37.540  27.695 -28.584  0.00  0.00     0.000 C 
ATOM     22  O61 IDS d   2     -37.795  27.774 -27.364  0.00  0.00     0.000 OA
BRANCH  21  23
ATOM     23  O62 IDS d   2     -36.620  27.023 -29.102  0.00  0.00     0.000 OA
ENDBRANCH  21  23
ENDBRANCH  12  21
ENDBRANCH   7   8
ENDBRANCH   6   7
BRANCH   1  25
ATOM     25  O3  SGN d   1     -39.520  25.499 -30.998  0.00  0.00    -0.391 OA
ATOM     26  H   SGN d   1     -38.774  25.313 -30.405  0.00  0.00     0.210 HD
ENDBRANCH   1  25
BRANCH   5  27
ATOM     27  C6  SGN d   1     -37.285  28.086 -34.500  0.00  0.00     0.198 C 
BRANCH  27  28
ATOM     28  O6  SGN d   1     -37.041  28.157 -35.908  0.00  0.00    -0.398 OA
ATOM     29  H   SGN d   1     -36.942  27.260 -36.264  0.00  0.00     0.209 HD
ENDBRANCH  27  28
ENDBRANCH   5  27
BRANCH   4  30
ATOM     30  N   SGN d   1     -39.101  23.093 -32.532  0.00  0.00    -0.189 NA
ATOM     31  H   SGN d   1     -38.172  22.906 -32.157  0.00  0.00     0.143 HD
BRANCH  30  32
ATOM     32  S1  SGN d   1     -40.201  22.221 -31.702  0.00  0.00     0.183 S 
ATOM     33  O2S SGN d   1     -39.782  20.749 -31.676  0.00  0.00    -0.582 OA
ATOM     34  O3S SGN d   1     -40.296  22.759 -30.273  0.00  0.00    -0.582 OA
ATOM     35  O1S SGN d   1     -41.566  22.346 -32.381  0.00  0.00    -0.582 OA
ENDBRANCH  30  32
ENDBRANCH   4  30
BRANCH   2  36
ATOM     36  O1  SGN d   1     -39.126  24.481 -35.066  0.00  0.00    -0.369 OA
ATOM     37  H   SGN d   1     -39.101  25.449 -35.006  0.00  0.00     0.212 HD
ENDBRANCH   2  36
TORSDOF 13
ENDMDL
MODEL 57
REMARK VINA RESULT:      -4.6      4.874      7.176
REMARK  13 active torsions:
REMARK  status: ('A' for Active; 'I' for Inactive)
REMARK    1  A    between atoms: C6_1  and  C5_27 
REMARK    2  A    between atoms: C6_1  and  O6_30 
REMARK    3  A    between atoms: O3_2  and  C3_3 
REMARK    4  A    between atoms: C6_4  and  C5_23 
REMARK    5  A    between atoms: C6_4  and  O62_11 
REMARK    6  A    between atoms: C1_6  and  O1_26 
REMARK    7  A    between atoms: C1_7  and  O1_9 
REMARK    8  A    between atoms: O1_9  and  C4_31 
REMARK    9  A    between atoms: C3_10  and  O3_29 
REMARK   10  A    between atoms: S_13  and  O2_22 
REMARK   11  A    between atoms: N_19  and  C2_25 
REMARK   12  A    between atoms: N_19  and  S1_28 
REMARK   13  A    between atoms: C2_20  and  O2_22 
ROOT
ATOM      1  C1  SGN d   1     -36.211  28.645 -27.229  0.00  0.00     0.000 C 
ATOM      2  C2  SGN d   1     -37.400  29.582 -27.092  0.00  0.00     0.000 C 
ATOM      3  C3  SGN d   1     -38.030  29.793 -28.459  0.00  0.00     0.000 C 
ATOM      4  C4  SGN d   1     -36.979  30.282 -29.443  0.00  0.00     0.000 C 
ATOM      5  C5  SGN d   1     -35.801  29.321 -29.446  0.00  0.00     0.000 C 
ATOM      6  O5  SGN d   1     -35.248  29.219 -28.125  0.00  0.00     0.000 OA
ENDROOT
BRANCH   6   7
ATOM      7  O1  SGN d   1     -37.557  30.337 -30.756  0.00  0.00     0.000 OA
BRANCH   7   8
ATOM      8  C1  IDS d   2     -38.487  29.393 -31.302  0.00  0.00     0.000 C 
ATOM      9  C2  IDS d   2     -39.547  30.146 -32.092  0.00  0.00     0.000 C 
ATOM     10  C3  IDS d   2     -40.263  29.178 -33.018  0.00  0.00     0.000 C 
ATOM     11  C4  IDS d   2     -39.268  28.683 -34.055  0.00  0.00     0.000 C 
ATOM     12  C5  IDS d   2     -37.857  28.853 -33.513  0.00  0.00     0.000 C 
ATOM     13  O5  IDS d   2     -37.823  28.434 -32.142  0.00  0.00     0.000 OA
BRANCH   9  14
ATOM     14  O2  IDS d   2     -40.470  30.770 -31.187  0.00  0.00     0.000 OA
BRANCH  14  15
ATOM     15  S   IDS d   2     -40.707  32.183 -31.269  0.00  0.00     0.000 S 
ATOM     16  O3S IDS d   2     -39.963  32.890 -30.134  0.00  0.00     0.000 OA
ATOM     17  O1S IDS d   2     -40.200  32.707 -32.615  0.00  0.00     0.000 OA
ATOM     18  O2S IDS d   2     -42.206  32.460 -31.148  0.00  0.00     0.000 OA
ENDBRANCH  14  15
ENDBRANCH   9  14
BRANCH  10  19
ATOM     19  O3  IDS d   2     -41.340  29.859 -33.680  0.00  0.00     0.000 OA
ATOM     20  H   IDS d   2     -42.074  29.242 -33.822  0.00  0.00     0.000 HD
ENDBRANCH  10  19
BRANCH  12  21
ATOM     21  C6  IDS d   2     -36.895  27.990 -34.333  0.00  0.00     0.000 C 
ATOM     22  O61 IDS d   2     -36.873  28.186 -35.566  0.00  0.00     0.000 OA
BRANCH  21  23
ATOM     23  O62 IDS d   2     -36.187  27.173 -33.704  0.00  0.00     0.000 OA
ENDBRANCH  21  23
ENDBRANCH  12  21
ENDBRANCH   7   8
ENDBRANCH   6   7
BRANCH   1  25
ATOM     25  O3  SGN d   1     -39.075  30.772 -28.358  0.00  0.00    -0.391 OA
ATOM     26  H   SGN d   1     -38.574  31.468 -28.811  0.00  0.00     0.210 HD
ENDBRANCH   1  25
BRANCH   5  27
ATOM     27  C6  SGN d   1     -34.732  29.818 -30.403  0.00  0.00     0.198 C 
BRANCH  27  28
ATOM     28  O6  SGN d   1     -34.971  29.286 -31.709  0.00  0.00    -0.398 OA
ATOM     29  H   SGN d   1     -34.311  29.637 -32.328  0.00  0.00     0.209 HD
ENDBRANCH  27  28
ENDBRANCH   5  27
BRANCH   4  30
ATOM     30  N   SGN d   1     -38.394  29.046 -26.150  0.00  0.00    -0.189 NA
ATOM     31  H   SGN d   1     -39.055  29.820 -26.082  0.00  0.00     0.143 HD
BRANCH  30  32
ATOM     32  S1  SGN d   1     -39.151  27.656 -25.755  0.00  0.00     0.183 S 
ATOM     33  O2S SGN d   1     -39.659  26.964 -27.022  0.00  0.00    -0.582 OA
ATOM     34  O3S SGN d   1     -38.171  26.740 -25.019  0.00  0.00    -0.582 OA
ATOM     35  O1S SGN d   1     -40.336  27.967 -24.839  0.00  0.00    -0.582 OA
ENDBRANCH  30  32
ENDBRANCH   4  30
BRANCH   2  36
ATOM     36  O1  SGN d   1     -36.653  27.380 -27.745  0.00  0.00    -0.369 OA
ATOM     37  H   SGN d   1     -35.740  27.643 -27.551  0.00  0.00     0.212 HD
ENDBRANCH   2  36
TORSDOF 13
ENDMDL
MODEL 58
REMARK VINA RESULT:      -4.6      2.295      4.470
REMARK  13 active torsions:
REMARK  status: ('A' for Active; 'I' for Inactive)
REMARK    1  A    between atoms: C6_1  and  C5_27 
REMARK    2  A    between atoms: C6_1  and  O6_30 
REMARK    3  A    between atoms: O3_2  and  C3_3 
REMARK    4  A    between atoms: C6_4  and  C5_23 
REMARK    5  A    between atoms: C6_4  and  O62_11 
REMARK    6  A    between atoms: C1_6  and  O1_26 
REMARK    7  A    between atoms: C1_7  and  O1_9 
REMARK    8  A    between atoms: O1_9  and  C4_31 
REMARK    9  A    between atoms: C3_10  and  O3_29 
REMARK   10  A    between atoms: S_13  and  O2_22 
REMARK   11  A    between atoms: N_19  and  C2_25 
REMARK   12  A    between atoms: N_19  and  S1_28 
REMARK   13  A    between atoms: C2_20  and  O2_22 
ROOT
ATOM      1  C1  SGN d   1     -40.776  24.081 -35.115  0.00  0.00     0.000 C 
ATOM      2  C2  SGN d   1     -39.812  23.825 -33.969  0.00  0.00     0.000 C 
ATOM      3  C3  SGN d   1     -40.009  24.891 -32.903  0.00  0.00     0.000 C 
ATOM      4  C4  SGN d   1     -39.869  26.273 -33.521  0.00  0.00     0.000 C 
ATOM      5  C5  SGN d   1     -40.815  26.398 -34.704  0.00  0.00     0.000 C 
ATOM      6  O5  SGN d   1     -40.525  25.379 -35.674  0.00  0.00     0.000 OA
ENDROOT
BRANCH   6   7
ATOM      7  O1  SGN d   1     -40.199  27.262 -32.535  0.00  0.00     0.000 OA
BRANCH   7   8
ATOM      8  C1  IDS d   2     -39.115  28.191 -32.398  0.00  0.00     0.000 C 
ATOM      9  C2  IDS d   2     -39.527  29.289 -31.429  0.00  0.00     0.000 C 
ATOM     10  C3  IDS d   2     -38.285  30.014 -30.938  0.00  0.00     0.000 C 
ATOM     11  C4  IDS d   2     -37.458  29.042 -30.114  0.00  0.00     0.000 C 
ATOM     12  C5  IDS d   2     -37.820  27.619 -30.508  0.00  0.00     0.000 C 
ATOM     13  O5  IDS d   2     -37.923  27.534 -31.936  0.00  0.00     0.000 OA
BRANCH   9  14
ATOM     14  O2  IDS d   2     -40.429  30.195 -32.080  0.00  0.00     0.000 OA
BRANCH  14  15
ATOM     15  S   IDS d   2     -41.718  30.458 -31.506  0.00  0.00     0.000 S 
ATOM     16  O3S IDS d   2     -42.596  31.175 -32.535  0.00  0.00     0.000 OA
ATOM     17  O1S IDS d   2     -42.375  29.136 -31.107  0.00  0.00     0.000 OA
ATOM     18  O2S IDS d   2     -41.557  31.341 -30.268  0.00  0.00     0.000 OA
ENDBRANCH  14  15
ENDBRANCH   9  14
BRANCH  10  19
ATOM     19  O3  IDS d   2     -38.676  31.124 -30.115  0.00  0.00     0.000 OA
ATOM     20  H   IDS d   2     -39.094  30.794 -29.305  0.00  0.00     0.000 HD
ENDBRANCH  10  19
BRANCH  12  21
ATOM     21  C6  IDS d   2     -36.727  26.667 -30.020  0.00  0.00     0.000 C 
ATOM     22  O61 IDS d   2     -36.658  25.552 -30.579  0.00  0.00     0.000 OA
BRANCH  21  23
ATOM     23  O62 IDS d   2     -35.968  27.086 -29.117  0.00  0.00     0.000 OA
ENDBRANCH  21  23
ENDBRANCH  12  21
ENDBRANCH   7   8
ENDBRANCH   6   7
BRANCH   1  25
ATOM     25  O3  SGN d   1     -39.019  24.728 -31.876  0.00  0.00    -0.391 OA
ATOM     26  H   SGN d   1     -39.468  25.550 -31.624  0.00  0.00     0.210 HD
ENDBRANCH   1  25
BRANCH   5  27
ATOM     27  C6  SGN d   1     -40.659  27.765 -35.347  0.00  0.00     0.198 C 
BRANCH  27  28
ATOM     28  O6  SGN d   1     -39.391  27.844 -36.006  0.00  0.00    -0.398 OA
ATOM     29  H   SGN d   1     -39.518  28.159 -36.914  0.00  0.00     0.209 HD
ENDBRANCH  27  28
ENDBRANCH   5  27
BRANCH   4  30
ATOM     30  N   SGN d   1     -40.011  22.486 -33.394  0.00  0.00    -0.189 NA
ATOM     31  H   SGN d   1     -39.019  22.403 -33.174  0.00  0.00     0.143 HD
BRANCH  30  32
ATOM     32  S1  SGN d   1     -40.861  21.470 -32.442  0.00  0.00     0.183 S 
ATOM     33  O2S SGN d   1     -40.685  20.031 -32.935  0.00  0.00    -0.582 OA
ATOM     34  O3S SGN d   1     -40.359  21.590 -31.002  0.00  0.00    -0.582 OA
ATOM     35  O1S SGN d   1     -42.342  21.845 -32.495  0.00  0.00    -0.582 OA
ENDBRANCH  30  32
ENDBRANCH   4  30
BRANCH   2  36
ATOM     36  O1  SGN d   1     -42.126  24.019 -34.631  0.00  0.00    -0.369 OA
ATOM     37  H   SGN d   1     -41.870  24.674 -35.298  0.00  0.00     0.212 HD
ENDBRANCH   2  36
TORSDOF 13
ENDMDL
MODEL 59
REMARK VINA RESULT:      -4.6      4.077      6.840
REMARK  13 active torsions:
REMARK  status: ('A' for Active; 'I' for Inactive)
REMARK    1  A    between atoms: C6_1  and  C5_27 
REMARK    2  A    between atoms: C6_1  and  O6_30 
REMARK    3  A    between atoms: O3_2  and  C3_3 
REMARK    4  A    between atoms: C6_4  and  C5_23 
REMARK    5  A    between atoms: C6_4  and  O62_11 
REMARK    6  A    between atoms: C1_6  and  O1_26 
REMARK    7  A    between atoms: C1_7  and  O1_9 
REMARK    8  A    between atoms: O1_9  and  C4_31 
REMARK    9  A    between atoms: C3_10  and  O3_29 
REMARK   10  A    between atoms: S_13  and  O2_22 
REMARK   11  A    between atoms: N_19  and  C2_25 
REMARK   12  A    between atoms: N_19  and  S1_28 
REMARK   13  A    between atoms: C2_20  and  O2_22 
ROOT
ATOM      1  C1  SGN d   1     -36.680  27.408 -32.940  0.00  0.00     0.000 C 
ATOM      2  C2  SGN d   1     -37.581  26.566 -32.052  0.00  0.00     0.000 C 
ATOM      3  C3  SGN d   1     -38.300  27.473 -31.066  0.00  0.00     0.000 C 
ATOM      4  C4  SGN d   1     -37.288  28.304 -30.295  0.00  0.00     0.000 C 
ATOM      5  C5  SGN d   1     -36.387  29.042 -31.272  0.00  0.00     0.000 C 
ATOM      6  O5  SGN d   1     -35.720  28.103 -32.129  0.00  0.00     0.000 OA
ENDROOT
BRANCH   6   7
ATOM      7  O1  SGN d   1     -37.988  29.253 -29.476  0.00  0.00     0.000 OA
BRANCH   7   8
ATOM      8  C1  IDS d   2     -37.637  28.994 -28.110  0.00  0.00     0.000 C 
ATOM      9  C2  IDS d   2     -37.957  30.226 -27.277  0.00  0.00     0.000 C 
ATOM     10  C3  IDS d   2     -38.011  29.838 -25.809  0.00  0.00     0.000 C 
ATOM     11  C4  IDS d   2     -39.190  28.900 -25.606  0.00  0.00     0.000 C 
ATOM     12  C5  IDS d   2     -39.544  28.248 -26.933  0.00  0.00     0.000 C 
ATOM     13  O5  IDS d   2     -38.339  27.848 -27.601  0.00  0.00     0.000 OA
BRANCH   9  14
ATOM     14  O2  IDS d   2     -36.962  31.236 -27.506  0.00  0.00     0.000 OA
BRANCH  14  15
ATOM     15  S   IDS d   2     -37.361  32.555 -27.906  0.00  0.00     0.000 S 
ATOM     16  O3S IDS d   2     -37.900  33.313 -26.690  0.00  0.00     0.000 OA
ATOM     17  O1S IDS d   2     -36.154  33.300 -28.477  0.00  0.00     0.000 OA
ATOM     18  O2S IDS d   2     -38.452  32.459 -28.973  0.00  0.00     0.000 OA
ENDBRANCH  14  15
ENDBRANCH   9  14
BRANCH  10  19
ATOM     19  O3  IDS d   2     -38.198  31.017 -25.011  0.00  0.00     0.000 OA
ATOM     20  H   IDS d   2     -38.723  30.796 -24.227  0.00  0.00     0.000 HD
ENDBRANCH  10  19
BRANCH  12  21
ATOM     21  C6  IDS d   2     -40.414  27.017 -26.674  0.00  0.00     0.000 C 
ATOM     22  O61 IDS d   2     -40.578  26.230 -27.630  0.00  0.00     0.000 OA
BRANCH  21  23
ATOM     23  O62 IDS d   2     -40.875  26.879 -25.519  0.00  0.00     0.000 OA
ENDBRANCH  21  23
ENDBRANCH  12  21
ENDBRANCH   7   8
ENDBRANCH   6   7
BRANCH   1  25
ATOM     25  O3  SGN d   1     -39.057  26.673 -30.145  0.00  0.00    -0.391 OA
ATOM     26  H   SGN d   1     -39.624  27.456 -30.222  0.00  0.00     0.210 HD
ENDBRANCH   1  25
BRANCH   5  27
ATOM     27  C6  SGN d   1     -35.352  29.851 -30.509  0.00  0.00     0.198 C 
BRANCH  27  28
ATOM     28  O6  SGN d   1     -35.836  31.182 -30.306  0.00  0.00    -0.398 OA
ATOM     29  H   SGN d   1     -36.536  31.171 -29.634  0.00  0.00     0.209 HD
ENDBRANCH  27  28
ENDBRANCH   5  27
BRANCH   4  30
ATOM     30  N   SGN d   1     -38.556  25.807 -32.849  0.00  0.00    -0.189 NA
ATOM     31  H   SGN d   1     -37.855  26.075 -33.540  0.00  0.00     0.143 HD
BRANCH  30  32
ATOM     32  S1  SGN d   1     -38.669  24.180 -32.804  0.00  0.00     0.183 S 
ATOM     33  O2S SGN d   1     -38.912  23.717 -31.366  0.00  0.00    -0.582 OA
ATOM     34  O3S SGN d   1     -39.827  23.731 -33.697  0.00  0.00    -0.582 OA
ATOM     35  O1S SGN d   1     -37.366  23.566 -33.320  0.00  0.00    -0.582 OA
ENDBRANCH  30  32
ENDBRANCH   4  30
BRANCH   2  36
ATOM     36  O1  SGN d   1     -37.474  28.358 -33.667  0.00  0.00    -0.369 OA
ATOM     37  H   SGN d   1     -37.738  28.984 -32.974  0.00  0.00     0.212 HD
ENDBRANCH   2  36
TORSDOF 13
ENDMDL
MODEL 60
REMARK VINA RESULT:      -4.6      3.873      7.406
REMARK  13 active torsions:
REMARK  status: ('A' for Active; 'I' for Inactive)
REMARK    1  A    between atoms: C6_1  and  C5_27 
REMARK    2  A    between atoms: C6_1  and  O6_30 
REMARK    3  A    between atoms: O3_2  and  C3_3 
REMARK    4  A    between atoms: C6_4  and  C5_23 
REMARK    5  A    between atoms: C6_4  and  O62_11 
REMARK    6  A    between atoms: C1_6  and  O1_26 
REMARK    7  A    between atoms: C1_7  and  O1_9 
REMARK    8  A    between atoms: O1_9  and  C4_31 
REMARK    9  A    between atoms: C3_10  and  O3_29 
REMARK   10  A    between atoms: S_13  and  O2_22 
REMARK   11  A    between atoms: N_19  and  C2_25 
REMARK   12  A    between atoms: N_19  and  S1_28 
REMARK   13  A    between atoms: C2_20  and  O2_22 
ROOT
ATOM      1  C1  SGN d   1     -36.990  30.836 -27.778  0.00  0.00     0.000 C 
ATOM      2  C2  SGN d   1     -36.173  29.655 -28.275  0.00  0.00     0.000 C 
ATOM      3  C3  SGN d   1     -36.879  29.023 -29.463  0.00  0.00     0.000 C 
ATOM      4  C4  SGN d   1     -38.306  28.660 -29.084  0.00  0.00     0.000 C 
ATOM      5  C5  SGN d   1     -39.010  29.887 -28.526  0.00  0.00     0.000 C 
ATOM      6  O5  SGN d   1     -38.295  30.386 -27.385  0.00  0.00     0.000 OA
ENDROOT
BRANCH   6   7
ATOM      7  O1  SGN d   1     -38.998  28.200 -30.254  0.00  0.00     0.000 OA
BRANCH   7   8
ATOM      8  C1  IDS d   2     -38.730  28.689 -31.575  0.00  0.00     0.000 C 
ATOM      9  C2  IDS d   2     -38.780  27.524 -32.551  0.00  0.00     0.000 C 
ATOM     10  C3  IDS d   2     -38.937  28.062 -33.964  0.00  0.00     0.000 C 
ATOM     11  C4  IDS d   2     -40.295  28.734 -34.072  0.00  0.00     0.000 C 
ATOM     12  C5  IDS d   2     -40.768  29.131 -32.682  0.00  0.00     0.000 C 
ATOM     13  O5  IDS d   2     -39.673  29.705 -31.955  0.00  0.00     0.000 OA
BRANCH   9  14
ATOM     14  O2  IDS d   2     -37.585  26.739 -32.429  0.00  0.00     0.000 OA
BRANCH  14  15
ATOM     15  S   IDS d   2     -37.661  25.395 -31.930  0.00  0.00     0.000 S 
ATOM     16  O3S IDS d   2     -37.176  24.424 -33.010  0.00  0.00     0.000 OA
ATOM     17  O1S IDS d   2     -36.775  25.262 -30.690  0.00  0.00     0.000 OA
ATOM     18  O2S IDS d   2     -39.108  25.066 -31.560  0.00  0.00     0.000 OA
ENDBRANCH  14  15
ENDBRANCH   9  14
BRANCH  10  19
ATOM     19  O3  IDS d   2     -38.869  26.974 -34.898  0.00  0.00     0.000 OA
ATOM     20  H   IDS d   2     -38.235  26.313 -34.580  0.00  0.00     0.000 HD
ENDBRANCH  10  19
BRANCH  12  21
ATOM     21  C6  IDS d   2     -41.891  30.162 -32.807  0.00  0.00     0.000 C 
ATOM     22  O61 IDS d   2     -42.421  30.287 -33.931  0.00  0.00     0.000 OA
BRANCH  21  23
ATOM     23  O62 IDS d   2     -42.211  30.783 -31.769  0.00  0.00     0.000 OA
ENDBRANCH  21  23
ENDBRANCH  12  21
ENDBRANCH   7   8
ENDBRANCH   6   7
BRANCH   1  25
ATOM     25  O3  SGN d   1     -36.177  27.835 -29.859  0.00  0.00    -0.391 OA
ATOM     26  H   SGN d   1     -35.212  27.925 -29.880  0.00  0.00     0.210 HD
ENDBRANCH   1  25
BRANCH   5  27
ATOM     27  C6  SGN d   1     -40.427  29.525 -28.115  0.00  0.00     0.198 C 
BRANCH  27  28
ATOM     28  O6  SGN d   1     -41.297  29.634 -29.245  0.00  0.00    -0.398 OA
ATOM     29  H   SGN d   1     -40.957  29.085 -29.969  0.00  0.00     0.209 HD
ENDBRANCH  27  28
ENDBRANCH   5  27
BRANCH   4  30
ATOM     30  N   SGN d   1     -34.813  30.070 -28.652  0.00  0.00    -0.189 NA
ATOM     31  H   SGN d   1     -34.394  29.146 -28.554  0.00  0.00     0.143 HD
BRANCH  30  32
ATOM     32  S1  SGN d   1     -33.886  30.979 -29.640  0.00  0.00     0.183 S 
ATOM     33  O2S SGN d   1     -32.414  30.602 -29.459  0.00  0.00    -0.582 OA
ATOM     34  O3S SGN d   1     -34.310  30.738 -31.090  0.00  0.00    -0.582 OA
ATOM     35  O1S SGN d   1     -34.076  32.457 -29.296  0.00  0.00    -0.582 OA
ENDBRANCH  30  32
ENDBRANCH   4  30
BRANCH   2  36
ATOM     36  O1  SGN d   1     -37.114  31.810 -28.826  0.00  0.00    -0.369 OA
ATOM     37  H   SGN d   1     -36.248  32.090 -29.163  0.00  0.00     0.212 HD
ENDBRANCH   2  36
TORSDOF 13
ENDMDL
MODEL 61
REMARK VINA RESULT:      -4.6      2.442      4.964
REMARK  13 active torsions:
REMARK  status: ('A' for Active; 'I' for Inactive)
REMARK    1  A    between atoms: C6_1  and  C5_27 
REMARK    2  A    between atoms: C6_1  and  O6_30 
REMARK    3  A    between atoms: O3_2  and  C3_3 
REMARK    4  A    between atoms: C6_4  and  C5_23 
REMARK    5  A    between atoms: C6_4  and  O62_11 
REMARK    6  A    between atoms: C1_6  and  O1_26 
REMARK    7  A    between atoms: C1_7  and  O1_9 
REMARK    8  A    between atoms: O1_9  and  C4_31 
REMARK    9  A    between atoms: C3_10  and  O3_29 
REMARK   10  A    between atoms: S_13  and  O2_22 
REMARK   11  A    between atoms: N_19  and  C2_25 
REMARK   12  A    between atoms: N_19  and  S1_28 
REMARK   13  A    between atoms: C2_20  and  O2_22 
ROOT
ATOM      1  C1  SGN d   1     -42.205  23.058 -29.954  0.00  0.00     0.000 C 
ATOM      2  C2  SGN d   1     -42.566  23.168 -31.426  0.00  0.00     0.000 C 
ATOM      3  C3  SGN d   1     -41.631  24.160 -32.097  0.00  0.00     0.000 C 
ATOM      4  C4  SGN d   1     -41.669  25.488 -31.359  0.00  0.00     0.000 C 
ATOM      5  C5  SGN d   1     -41.373  25.258 -29.886  0.00  0.00     0.000 C 
ATOM      6  O5  SGN d   1     -42.332  24.344 -29.330  0.00  0.00     0.000 OA
ENDROOT
BRANCH   6   7
ATOM      7  O1  SGN d   1     -40.676  26.363 -31.917  0.00  0.00     0.000 OA
BRANCH   7   8
ATOM      8  C1  IDS d   2     -39.433  25.899 -32.462  0.00  0.00     0.000 C 
ATOM      9  C2  IDS d   2     -39.087  26.737 -33.683  0.00  0.00     0.000 C 
ATOM     10  C3  IDS d   2     -37.612  26.569 -34.004  0.00  0.00     0.000 C 
ATOM     11  C4  IDS d   2     -36.803  27.168 -32.865  0.00  0.00     0.000 C 
ATOM     12  C5  IDS d   2     -37.662  27.208 -31.610  0.00  0.00     0.000 C 
ATOM     13  O5  IDS d   2     -38.379  25.972 -31.487  0.00  0.00     0.000 OA
BRANCH   9  14
ATOM     14  O2  IDS d   2     -39.904  26.335 -34.792  0.00  0.00     0.000 OA
BRANCH  14  15
ATOM     15  S   IDS d   2     -40.911  27.224 -35.298  0.00  0.00     0.000 S 
ATOM     16  O3S IDS d   2     -40.594  27.575 -36.754  0.00  0.00     0.000 OA
ATOM     17  O1S IDS d   2     -42.277  26.541 -35.224  0.00  0.00     0.000 OA
ATOM     18  O2S IDS d   2     -40.935  28.502 -34.459  0.00  0.00     0.000 OA
ENDBRANCH  14  15
ENDBRANCH   9  14
BRANCH  10  19
ATOM     19  O3  IDS d   2     -37.306  27.266 -35.221  0.00  0.00     0.000 OA
ATOM     20  H   IDS d   2     -38.106  27.332 -35.766  0.00  0.00     0.000 HD
ENDBRANCH  10  19
BRANCH  12  21
ATOM     21  C6  IDS d   2     -36.760  27.396 -30.388  0.00  0.00     0.000 C 
ATOM     22  O61 IDS d   2     -36.417  28.565 -30.115  0.00  0.00     0.000 OA
BRANCH  21  23
ATOM     23  O62 IDS d   2     -36.457  26.369 -29.741  0.00  0.00     0.000 OA
ENDBRANCH  21  23
ENDBRANCH  12  21
ENDBRANCH   7   8
ENDBRANCH   6   7
BRANCH   1  25
ATOM     25  O3  SGN d   1     -42.044  24.362 -33.457  0.00  0.00    -0.391 OA
ATOM     26  H   SGN d   1     -41.720  23.562 -33.899  0.00  0.00     0.210 HD
ENDBRANCH   1  25
BRANCH   5  27
ATOM     27  C6  SGN d   1     -41.441  26.577 -29.134  0.00  0.00     0.198 C 
BRANCH  27  28
ATOM     28  O6  SGN d   1     -40.129  27.137 -29.029  0.00  0.00    -0.398 OA
ATOM     29  H   SGN d   1     -39.475  26.490 -29.339  0.00  0.00     0.209 HD
ENDBRANCH  27  28
ENDBRANCH   5  27
BRANCH   4  30
ATOM     30  N   SGN d   1     -42.486  21.860 -32.093  0.00  0.00    -0.189 NA
ATOM     31  H   SGN d   1     -43.217  22.104 -32.762  0.00  0.00     0.143 HD
BRANCH  30  32
ATOM     32  S1  SGN d   1     -41.578  20.652 -32.707  0.00  0.00     0.183 S 
ATOM     33  O2S SGN d   1     -42.482  19.500 -33.153  0.00  0.00    -0.582 OA
ATOM     34  O3S SGN d   1     -40.779  21.178 -33.900  0.00  0.00    -0.582 OA
ATOM     35  O1S SGN d   1     -40.611  20.149 -31.633  0.00  0.00    -0.582 OA
ENDBRANCH  30  32
ENDBRANCH   4  30
BRANCH   2  36
ATOM     36  O1  SGN d   1     -40.853  22.592 -29.825  0.00  0.00    -0.369 OA
ATOM     37  H   SGN d   1     -41.227  21.700 -29.761  0.00  0.00     0.212 HD
ENDBRANCH   2  36
TORSDOF 13
ENDMDL
MODEL 62
REMARK VINA RESULT:      -4.6      3.386      7.232
REMARK  13 active torsions:
REMARK  status: ('A' for Active; 'I' for Inactive)
REMARK    1  A    between atoms: C6_1  and  C5_27 
REMARK    2  A    between atoms: C6_1  and  O6_30 
REMARK    3  A    between atoms: O3_2  and  C3_3 
REMARK    4  A    between atoms: C6_4  and  C5_23 
REMARK    5  A    between atoms: C6_4  and  O62_11 
REMARK    6  A    between atoms: C1_6  and  O1_26 
REMARK    7  A    between atoms: C1_7  and  O1_9 
REMARK    8  A    between atoms: O1_9  and  C4_31 
REMARK    9  A    between atoms: C3_10  and  O3_29 
REMARK   10  A    between atoms: S_13  and  O2_22 
REMARK   11  A    between atoms: N_19  and  C2_25 
REMARK   12  A    between atoms: N_19  and  S1_28 
REMARK   13  A    between atoms: C2_20  and  O2_22 
ROOT
ATOM      1  C1  SGN d   1     -38.073  30.340 -28.582  0.00  0.00     0.000 C 
ATOM      2  C2  SGN d   1     -38.949  30.202 -29.816  0.00  0.00     0.000 C 
ATOM      3  C3  SGN d   1     -39.198  28.728 -30.091  0.00  0.00     0.000 C 
ATOM      4  C4  SGN d   1     -37.873  27.991 -30.198  0.00  0.00     0.000 C 
ATOM      5  C5  SGN d   1     -37.042  28.257 -28.954  0.00  0.00     0.000 C 
ATOM      6  O5  SGN d   1     -36.823  29.668 -28.802  0.00  0.00     0.000 OA
ENDROOT
BRANCH   6   7
ATOM      7  O1  SGN d   1     -38.129  26.583 -30.313  0.00  0.00     0.000 OA
BRANCH   7   8
ATOM      8  C1  IDS d   2     -37.401  25.984 -31.395  0.00  0.00     0.000 C 
ATOM      9  C2  IDS d   2     -38.352  25.123 -32.211  0.00  0.00     0.000 C 
ATOM     10  C3  IDS d   2     -37.734  24.844 -33.570  0.00  0.00     0.000 C 
ATOM     11  C4  IDS d   2     -37.633  26.157 -34.328  0.00  0.00     0.000 C 
ATOM     12  C5  IDS d   2     -37.641  27.309 -33.335  0.00  0.00     0.000 C 
ATOM     13  O5  IDS d   2     -36.790  26.985 -32.227  0.00  0.00     0.000 OA
BRANCH   9  14
ATOM     14  O2  IDS d   2     -38.621  23.901 -31.508  0.00  0.00     0.000 OA
BRANCH  14  15
ATOM     15  S   IDS d   2     -39.899  23.262 -31.647  0.00  0.00     0.000 S 
ATOM     16  O3S IDS d   2     -40.894  24.245 -32.267  0.00  0.00     0.000 OA
ATOM     17  O1S IDS d   2     -39.759  22.037 -32.553  0.00  0.00     0.000 OA
ATOM     18  O2S IDS d   2     -40.405  22.823 -30.272  0.00  0.00     0.000 OA
ENDBRANCH  14  15
ENDBRANCH   9  14
BRANCH  10  19
ATOM     19  O3  IDS d   2     -38.575  23.937 -34.300  0.00  0.00     0.000 OA
ATOM     20  H   IDS d   2     -38.962  23.292 -33.688  0.00  0.00     0.000 HD
ENDBRANCH  10  19
BRANCH  12  21
ATOM     21  C6  IDS d   2     -37.120  28.572 -34.023  0.00  0.00     0.000 C 
ATOM     22  O61 IDS d   2     -37.090  29.616 -33.339  0.00  0.00     0.000 OA
BRANCH  21  23
ATOM     23  O62 IDS d   2     -36.739  28.458 -35.210  0.00  0.00     0.000 OA
ENDBRANCH  21  23
ENDBRANCH  12  21
ENDBRANCH   7   8
ENDBRANCH   6   7
BRANCH   1  25
ATOM     25  O3  SGN d   1     -39.920  28.588 -31.323  0.00  0.00    -0.391 OA
ATOM     26  H   SGN d   1     -39.170  28.143 -31.749  0.00  0.00     0.210 HD
ENDBRANCH   1  25
BRANCH   5  27
ATOM     27  C6  SGN d   1     -35.702  27.549 -29.067  0.00  0.00     0.198 C 
BRANCH  27  28
ATOM     28  O6  SGN d   1     -34.941  28.129 -30.130  0.00  0.00    -0.398 OA
ATOM     29  H   SGN d   1     -35.247  29.036 -30.289  0.00  0.00     0.209 HD
ENDBRANCH  27  28
ENDBRANCH   5  27
BRANCH   4  30
ATOM     30  N   SGN d   1     -40.225  30.912 -29.645  0.00  0.00    -0.189 NA
ATOM     31  H   SGN d   1     -39.599  31.360 -28.976  0.00  0.00     0.143 HD
BRANCH  30  32
ATOM     32  S1  SGN d   1     -40.810  32.036 -30.671  0.00  0.00     0.183 S 
ATOM     33  O2S SGN d   1     -42.282  32.311 -30.355  0.00  0.00    -0.582 OA
ATOM     34  O3S SGN d   1     -39.998  33.325 -30.522  0.00  0.00    -0.582 OA
ATOM     35  O1S SGN d   1     -40.687  31.525 -32.107  0.00  0.00    -0.582 OA
ENDBRANCH  30  32
ENDBRANCH   4  30
BRANCH   2  36
ATOM     36  O1  SGN d   1     -38.740  29.756 -27.452  0.00  0.00    -0.369 OA
ATOM     37  H   SGN d   1     -38.255  30.589 -27.348  0.00  0.00     0.212 HD
ENDBRANCH   2  36
TORSDOF 13
ENDMDL
MODEL 63
REMARK VINA RESULT:      -4.6      3.428      5.952
REMARK  13 active torsions:
REMARK  status: ('A' for Active; 'I' for Inactive)
REMARK    1  A    between atoms: C6_1  and  C5_27 
REMARK    2  A    between atoms: C6_1  and  O6_30 
REMARK    3  A    between atoms: O3_2  and  C3_3 
REMARK    4  A    between atoms: C6_4  and  C5_23 
REMARK    5  A    between atoms: C6_4  and  O62_11 
REMARK    6  A    between atoms: C1_6  and  O1_26 
REMARK    7  A    between atoms: C1_7  and  O1_9 
REMARK    8  A    between atoms: O1_9  and  C4_31 
REMARK    9  A    between atoms: C3_10  and  O3_29 
REMARK   10  A    between atoms: S_13  and  O2_22 
REMARK   11  A    between atoms: N_19  and  C2_25 
REMARK   12  A    between atoms: N_19  and  S1_28 
REMARK   13  A    between atoms: C2_20  and  O2_22 
ROOT
ATOM      1  C1  SGN d   1     -40.190  27.866 -33.605  0.00  0.00     0.000 C 
ATOM      2  C2  SGN d   1     -38.723  27.524 -33.402  0.00  0.00     0.000 C 
ATOM      3  C3  SGN d   1     -38.185  28.313 -32.220  0.00  0.00     0.000 C 
ATOM      4  C4  SGN d   1     -38.442  29.797 -32.428  0.00  0.00     0.000 C 
ATOM      5  C5  SGN d   1     -39.920  30.023 -32.702  0.00  0.00     0.000 C 
ATOM      6  O5  SGN d   1     -40.325  29.273 -33.857  0.00  0.00     0.000 OA
ENDROOT
BRANCH   6   7
ATOM      7  O1  SGN d   1     -38.058  30.509 -31.243  0.00  0.00     0.000 OA
BRANCH   7   8
ATOM      8  C1  IDS d   2     -38.230  30.033 -29.900  0.00  0.00     0.000 C 
ATOM      9  C2  IDS d   2     -36.972  30.344 -29.103  0.00  0.00     0.000 C 
ATOM     10  C3  IDS d   2     -37.286  30.256 -27.619  0.00  0.00     0.000 C 
ATOM     11  C4  IDS d   2     -38.265  31.365 -27.271  0.00  0.00     0.000 C 
ATOM     12  C5  IDS d   2     -39.001  31.796 -28.531  0.00  0.00     0.000 C 
ATOM     13  O5  IDS d   2     -39.379  30.632 -29.279  0.00  0.00     0.000 OA
BRANCH   9  14
ATOM     14  O2  IDS d   2     -35.932  29.423 -29.464  0.00  0.00     0.000 OA
BRANCH  14  15
ATOM     15  S   IDS d   2     -34.686  29.918 -29.978  0.00  0.00     0.000 S 
ATOM     16  O3S IDS d   2     -34.308  31.205 -29.241  0.00  0.00     0.000 OA
ATOM     17  O1S IDS d   2     -33.595  28.867 -29.764  0.00  0.00     0.000 OA
ATOM     18  O2S IDS d   2     -34.827  30.208 -31.473  0.00  0.00     0.000 OA
ENDBRANCH  14  15
ENDBRANCH   9  14
BRANCH  10  19
ATOM     19  O3  IDS d   2     -36.077  30.434 -26.865  0.00  0.00     0.000 OA
ATOM     20  H   IDS d   2     -36.005  29.733 -26.199  0.00  0.00     0.000 HD
ENDBRANCH  10  19
BRANCH  12  21
ATOM     21  C6  IDS d   2     -40.255  32.579 -28.139  0.00  0.00     0.000 C 
ATOM     22  O61 IDS d   2     -41.167  32.645 -28.989  0.00  0.00     0.000 OA
BRANCH  21  23
ATOM     23  O62 IDS d   2     -40.283  33.072 -26.989  0.00  0.00     0.000 OA
ENDBRANCH  21  23
ENDBRANCH  12  21
ENDBRANCH   7   8
ENDBRANCH   6   7
BRANCH   1  25
ATOM     25  O3  SGN d   1     -36.772  28.089 -32.099  0.00  0.00    -0.391 OA
ATOM     26  H   SGN d   1     -36.251  28.126 -32.917  0.00  0.00     0.210 HD
ENDBRANCH   1  25
BRANCH   5  27
ATOM     27  C6  SGN d   1     -40.180  31.500 -32.943  0.00  0.00     0.198 C 
BRANCH  27  28
ATOM     28  O6  SGN d   1     -40.241  32.187 -31.690  0.00  0.00    -0.398 OA
ATOM     29  H   SGN d   1     -41.005  31.869 -31.183  0.00  0.00     0.209 HD
ENDBRANCH  27  28
ENDBRANCH   5  27
BRANCH   4  30
ATOM     30  N   SGN d   1     -38.539  26.082 -33.178  0.00  0.00    -0.189 NA
ATOM     31  H   SGN d   1     -37.826  26.155 -33.903  0.00  0.00     0.143 HD
BRANCH  30  32
ATOM     32  S1  SGN d   1     -38.224  24.784 -32.243  0.00  0.00     0.183 S 
ATOM     33  O2S SGN d   1     -39.497  24.351 -31.512  0.00  0.00    -0.582 OA
ATOM     34  O3S SGN d   1     -37.716  23.640 -33.123  0.00  0.00    -0.582 OA
ATOM     35  O1S SGN d   1     -37.150  25.147 -31.216  0.00  0.00    -0.582 OA
ENDBRANCH  30  32
ENDBRANCH   4  30
BRANCH   2  36
ATOM     36  O1  SGN d   1     -40.933  27.516 -32.427  0.00  0.00    -0.369 OA
ATOM     37  H   SGN d   1     -40.532  27.512 -31.544  0.00  0.00     0.212 HD
ENDBRANCH   2  36
TORSDOF 13
ENDMDL
MODEL 64
REMARK VINA RESULT:      -4.6      3.974      6.580
REMARK  13 active torsions:
REMARK  status: ('A' for Active; 'I' for Inactive)
REMARK    1  A    between atoms: C6_1  and  C5_27 
REMARK    2  A    between atoms: C6_1  and  O6_30 
REMARK    3  A    between atoms: O3_2  and  C3_3 
REMARK    4  A    between atoms: C6_4  and  C5_23 
REMARK    5  A    between atoms: C6_4  and  O62_11 
REMARK    6  A    between atoms: C1_6  and  O1_26 
REMARK    7  A    between atoms: C1_7  and  O1_9 
REMARK    8  A    between atoms: O1_9  and  C4_31 
REMARK    9  A    between atoms: C3_10  and  O3_29 
REMARK   10  A    between atoms: S_13  and  O2_22 
REMARK   11  A    between atoms: N_19  and  C2_25 
REMARK   12  A    between atoms: N_19  and  S1_28 
REMARK   13  A    between atoms: C2_20  and  O2_22 
ROOT
ATOM      1  C1  SGN d   1     -36.301  26.995 -29.875  0.00  0.00     0.000 C 
ATOM      2  C2  SGN d   1     -35.825  28.126 -30.773  0.00  0.00     0.000 C 
ATOM      3  C3  SGN d   1     -36.948  28.522 -31.716  0.00  0.00     0.000 C 
ATOM      4  C4  SGN d   1     -37.438  27.302 -32.480  0.00  0.00     0.000 C 
ATOM      5  C5  SGN d   1     -37.813  26.205 -31.496  0.00  0.00     0.000 C 
ATOM      6  O5  SGN d   1     -36.680  25.869 -30.681  0.00  0.00     0.000 OA
ENDROOT
BRANCH   6   7
ATOM      7  O1  SGN d   1     -38.589  27.666 -33.255  0.00  0.00     0.000 OA
BRANCH   7   8
ATOM      8  C1  IDS d   2     -40.022  27.591 -33.229  0.00  0.00     0.000 C 
ATOM      9  C2  IDS d   2     -40.593  28.974 -33.501  0.00  0.00     0.000 C 
ATOM     10  C3  IDS d   2     -42.050  28.842 -33.908  0.00  0.00     0.000 C 
ATOM     11  C4  IDS d   2     -42.111  28.115 -35.241  0.00  0.00     0.000 C 
ATOM     12  C5  IDS d   2     -40.837  27.306 -35.427  0.00  0.00     0.000 C 
ATOM     13  O5  IDS d   2     -40.510  26.646 -34.196  0.00  0.00     0.000 OA
BRANCH   9  14
ATOM     14  O2  IDS d   2     -40.457  29.792 -32.330  0.00  0.00     0.000 OA
BRANCH  14  15
ATOM     15  S   IDS d   2     -39.908  31.113 -32.439  0.00  0.00     0.000 S 
ATOM     16  O3S IDS d   2     -39.605  31.656 -31.041  0.00  0.00     0.000 OA
ATOM     17  O1S IDS d   2     -38.616  31.061 -33.257  0.00  0.00     0.000 OA
ATOM     18  O2S IDS d   2     -40.914  32.030 -33.136  0.00  0.00     0.000 OA
ENDBRANCH  14  15
ENDBRANCH   9  14
BRANCH  10  19
ATOM     19  O3  IDS d   2     -42.625  30.150 -34.054  0.00  0.00     0.000 OA
ATOM     20  H   IDS d   2     -43.524  30.071 -34.407  0.00  0.00     0.000 HD
ENDBRANCH  10  19
BRANCH  12  21
ATOM     21  C6  IDS d   2     -41.058  26.260 -36.521  0.00  0.00     0.000 C 
ATOM     22  O61 IDS d   2     -41.357  26.686 -37.657  0.00  0.00     0.000 OA
BRANCH  21  23
ATOM     23  O62 IDS d   2     -40.898  25.061 -36.203  0.00  0.00     0.000 OA
ENDBRANCH  21  23
ENDBRANCH  12  21
ENDBRANCH   7   8
ENDBRANCH   6   7
BRANCH   1  25
ATOM     25  O3  SGN d   1     -36.466  29.502 -32.648  0.00  0.00    -0.391 OA
ATOM     26  H   SGN d   1     -36.031  28.985 -33.343  0.00  0.00     0.210 HD
ENDBRANCH   1  25
BRANCH   5  27
ATOM     27  C6  SGN d   1     -38.274  24.970 -32.252  0.00  0.00     0.198 C 
BRANCH  27  28
ATOM     28  O6  SGN d   1     -37.842  25.052 -33.614  0.00  0.00    -0.398 OA
ATOM     29  H   SGN d   1     -38.475  24.585 -34.182  0.00  0.00     0.209 HD
ENDBRANCH  27  28
ENDBRANCH   5  27
BRANCH   4  30
ATOM     30  N   SGN d   1     -35.390  29.287 -29.982  0.00  0.00    -0.189 NA
ATOM     31  H   SGN d   1     -34.769  28.501 -29.785  0.00  0.00     0.143 HD
BRANCH  30  32
ATOM     32  S1  SGN d   1     -34.501  30.644 -30.151  0.00  0.00     0.183 S 
ATOM     33  O2S SGN d   1     -35.241  31.829 -29.526  0.00  0.00    -0.582 OA
ATOM     34  O3S SGN d   1     -33.151  30.451 -29.459  0.00  0.00    -0.582 OA
ATOM     35  O1S SGN d   1     -34.272  30.919 -31.638  0.00  0.00    -0.582 OA
ENDBRANCH  30  32
ENDBRANCH   4  30
BRANCH   2  36
ATOM     36  O1  SGN d   1     -37.429  27.437 -29.105  0.00  0.00    -0.369 OA
ATOM     37  H   SGN d   1     -38.085  27.300 -29.807  0.00  0.00     0.212 HD
ENDBRANCH   2  36
TORSDOF 13
ENDMDL
MODEL 65
REMARK VINA RESULT:      -4.6      2.907      5.481
REMARK  13 active torsions:
REMARK  status: ('A' for Active; 'I' for Inactive)
REMARK    1  A    between atoms: C6_1  and  C5_27 
REMARK    2  A    between atoms: C6_1  and  O6_30 
REMARK    3  A    between atoms: O3_2  and  C3_3 
REMARK    4  A    between atoms: C6_4  and  C5_23 
REMARK    5  A    between atoms: C6_4  and  O62_11 
REMARK    6  A    between atoms: C1_6  and  O1_26 
REMARK    7  A    between atoms: C1_7  and  O1_9 
REMARK    8  A    between atoms: O1_9  and  C4_31 
REMARK    9  A    between atoms: C3_10  and  O3_29 
REMARK   10  A    between atoms: S_13  and  O2_22 
REMARK   11  A    between atoms: N_19  and  C2_25 
REMARK   12  A    between atoms: N_19  and  S1_28 
REMARK   13  A    between atoms: C2_20  and  O2_22 
ROOT
ATOM      1  C1  SGN d   1     -38.891  25.738 -34.568  0.00  0.00     0.000 C 
ATOM      2  C2  SGN d   1     -38.667  24.565 -33.629  0.00  0.00     0.000 C 
ATOM      3  C3  SGN d   1     -38.624  25.072 -32.197  0.00  0.00     0.000 C 
ATOM      4  C4  SGN d   1     -37.577  26.166 -32.066  0.00  0.00     0.000 C 
ATOM      5  C5  SGN d   1     -37.844  27.249 -33.099  0.00  0.00     0.000 C 
ATOM      6  O5  SGN d   1     -37.822  26.684 -34.419  0.00  0.00     0.000 OA
ENDROOT
BRANCH   6   7
ATOM      7  O1  SGN d   1     -37.652  26.730 -30.748  0.00  0.00     0.000 OA
BRANCH   7   8
ATOM      8  C1  IDS d   2     -37.912  27.962 -30.062  0.00  0.00     0.000 C 
ATOM      9  C2  IDS d   2     -39.268  27.868 -29.378  0.00  0.00     0.000 C 
ATOM     10  C3  IDS d   2     -39.368  28.948 -28.315  0.00  0.00     0.000 C 
ATOM     11  C4  IDS d   2     -38.350  28.645 -27.228  0.00  0.00     0.000 C 
ATOM     12  C5  IDS d   2     -37.254  27.761 -27.803  0.00  0.00     0.000 C 
ATOM     13  O5  IDS d   2     -36.883  28.249 -29.100  0.00  0.00     0.000 OA
BRANCH   9  14
ATOM     14  O2  IDS d   2     -40.311  28.009 -30.354  0.00  0.00     0.000 OA
BRANCH  14  15
ATOM     15  S   IDS d   2     -41.370  27.041 -30.413  0.00  0.00     0.000 S 
ATOM     16  O3S IDS d   2     -41.687  26.723 -31.876  0.00  0.00     0.000 OA
ATOM     17  O1S IDS d   2     -40.932  25.763 -29.696  0.00  0.00     0.000 OA
ATOM     18  O2S IDS d   2     -42.618  27.605 -29.731  0.00  0.00     0.000 OA
ENDBRANCH  14  15
ENDBRANCH   9  14
BRANCH  10  19
ATOM     19  O3  IDS d   2     -40.687  28.938 -27.747  0.00  0.00     0.000 OA
ATOM     20  H   IDS d   2     -40.687  28.400 -26.940  0.00  0.00     0.000 HD
ENDBRANCH  10  19
BRANCH  12  21
ATOM     21  C6  IDS d   2     -36.036  27.801 -26.877  0.00  0.00     0.000 C 
ATOM     22  O61 IDS d   2     -34.914  27.855 -27.423  0.00  0.00     0.000 OA
BRANCH  21  23
ATOM     23  O62 IDS d   2     -36.257  27.802 -25.646  0.00  0.00     0.000 OA
ENDBRANCH  21  23
ENDBRANCH  12  21
ENDBRANCH   7   8
ENDBRANCH   6   7
BRANCH   1  25
ATOM     25  O3  SGN d   1     -38.290  23.988 -31.316  0.00  0.00    -0.391 OA
ATOM     26  H   SGN d   1     -39.205  23.741 -31.108  0.00  0.00     0.210 HD
ENDBRANCH   1  25
BRANCH   5  27
ATOM     27  C6  SGN d   1     -36.783  28.332 -32.996  0.00  0.00     0.198 C 
BRANCH  27  28
ATOM     28  O6  SGN d   1     -35.570  27.768 -32.489  0.00  0.00    -0.398 OA
ATOM     29  H   SGN d   1     -35.578  27.804 -31.519  0.00  0.00     0.209 HD
ENDBRANCH  27  28
ENDBRANCH   5  27
BRANCH   4  30
ATOM     30  N   SGN d   1     -39.723  23.552 -33.780  0.00  0.00    -0.189 NA
ATOM     31  H   SGN d   1     -38.928  23.143 -34.270  0.00  0.00     0.143 HD
BRANCH  30  32
ATOM     32  S1  SGN d   1     -40.656  22.358 -33.178  0.00  0.00     0.183 S 
ATOM     33  O2S SGN d   1     -39.934  21.674 -32.014  0.00  0.00    -0.582 OA
ATOM     34  O3S SGN d   1     -41.981  22.949 -32.693  0.00  0.00    -0.582 OA
ATOM     35  O1S SGN d   1     -40.934  21.329 -34.275  0.00  0.00    -0.582 OA
ENDBRANCH  30  32
ENDBRANCH   4  30
BRANCH   2  36
ATOM     36  O1  SGN d   1     -40.141  26.372 -34.255  0.00  0.00    -0.369 OA
ATOM     37  H   SGN d   1     -40.516  25.811 -34.952  0.00  0.00     0.212 HD
ENDBRANCH   2  36
TORSDOF 13
ENDMDL
MODEL 66
REMARK VINA RESULT:      -4.6      2.667      6.550
REMARK  13 active torsions:
REMARK  status: ('A' for Active; 'I' for Inactive)
REMARK    1  A    between atoms: C6_1  and  C5_27 
REMARK    2  A    between atoms: C6_1  and  O6_30 
REMARK    3  A    between atoms: O3_2  and  C3_3 
REMARK    4  A    between atoms: C6_4  and  C5_23 
REMARK    5  A    between atoms: C6_4  and  O62_11 
REMARK    6  A    between atoms: C1_6  and  O1_26 
REMARK    7  A    between atoms: C1_7  and  O1_9 
REMARK    8  A    between atoms: O1_9  and  C4_31 
REMARK    9  A    between atoms: C3_10  and  O3_29 
REMARK   10  A    between atoms: S_13  and  O2_22 
REMARK   11  A    between atoms: N_19  and  C2_25 
REMARK   12  A    between atoms: N_19  and  S1_28 
REMARK   13  A    between atoms: C2_20  and  O2_22 
ROOT
ATOM      1  C1  SGN d   1     -38.647  29.674 -31.253  0.00  0.00     0.000 C 
ATOM      2  C2  SGN d   1     -37.383  28.945 -30.829  0.00  0.00     0.000 C 
ATOM      3  C3  SGN d   1     -37.402  27.537 -31.401  0.00  0.00     0.000 C 
ATOM      4  C4  SGN d   1     -38.682  26.828 -30.989  0.00  0.00     0.000 C 
ATOM      5  C5  SGN d   1     -39.881  27.674 -31.386  0.00  0.00     0.000 C 
ATOM      6  O5  SGN d   1     -39.797  28.966 -30.765  0.00  0.00     0.000 OA
ENDROOT
BRANCH   6   7
ATOM      7  O1  SGN d   1     -38.749  25.558 -31.655  0.00  0.00     0.000 OA
BRANCH   7   8
ATOM      8  C1  IDS d   2     -38.663  25.203 -33.042  0.00  0.00     0.000 C 
ATOM      9  C2  IDS d   2     -39.734  24.169 -33.353  0.00  0.00     0.000 C 
ATOM     10  C3  IDS d   2     -39.949  24.109 -34.856  0.00  0.00     0.000 C 
ATOM     11  C4  IDS d   2     -40.533  25.438 -35.309  0.00  0.00     0.000 C 
ATOM     12  C5  IDS d   2     -40.188  26.509 -34.285  0.00  0.00     0.000 C 
ATOM     13  O5  IDS d   2     -38.820  26.358 -33.884  0.00  0.00     0.000 OA
BRANCH   9  14
ATOM     14  O2  IDS d   2     -39.333  22.890 -32.840  0.00  0.00     0.000 OA
BRANCH  14  15
ATOM     15  S   IDS d   2     -40.177  22.198 -31.907  0.00  0.00     0.000 S 
ATOM     16  O3S IDS d   2     -39.645  20.779 -31.696  0.00  0.00     0.000 OA
ATOM     17  O1S IDS d   2     -40.179  22.946 -30.572  0.00  0.00     0.000 OA
ATOM     18  O2S IDS d   2     -41.603  22.133 -32.456  0.00  0.00     0.000 OA
ENDBRANCH  14  15
ENDBRANCH   9  14
BRANCH  10  19
ATOM     19  O3  IDS d   2     -40.874  23.054 -35.163  0.00  0.00     0.000 OA
ATOM     20  H   IDS d   2     -41.729  23.437 -35.413  0.00  0.00     0.000 HD
ENDBRANCH  10  19
BRANCH  12  21
ATOM     21  C6  IDS d   2     -40.384  27.889 -34.915  0.00  0.00     0.000 C 
ATOM     22  O61 IDS d   2     -41.130  28.686 -34.308  0.00  0.00     0.000 OA
BRANCH  21  23
ATOM     23  O62 IDS d   2     -39.763  28.125 -35.975  0.00  0.00     0.000 OA
ENDBRANCH  21  23
ENDBRANCH  12  21
ENDBRANCH   7   8
ENDBRANCH   6   7
BRANCH   1  25
ATOM     25  O3  SGN d   1     -36.273  26.803 -30.903  0.00  0.00    -0.391 OA
ATOM     26  H   SGN d   1     -36.348  26.437 -31.798  0.00  0.00     0.210 HD
ENDBRANCH   1  25
BRANCH   5  27
ATOM     27  C6  SGN d   1     -41.164  26.988 -30.949  0.00  0.00     0.198 C 
BRANCH  27  28
ATOM     28  O6  SGN d   1     -40.859  25.951 -30.012  0.00  0.00    -0.398 OA
ATOM     29  H   SGN d   1     -41.677  25.651 -29.585  0.00  0.00     0.209 HD
ENDBRANCH  27  28
ENDBRANCH   5  27
BRANCH   4  30
ATOM     30  N   SGN d   1     -36.179  29.661 -31.277  0.00  0.00    -0.189 NA
ATOM     31  H   SGN d   1     -36.903  30.377 -31.228  0.00  0.00     0.143 HD
BRANCH  30  32
ATOM     32  S1  SGN d   1     -34.927  30.095 -30.327  0.00  0.00     0.183 S 
ATOM     33  O2S SGN d   1     -34.127  28.854 -29.925  0.00  0.00    -0.582 OA
ATOM     34  O3S SGN d   1     -34.027  31.067 -31.093  0.00  0.00    -0.582 OA
ATOM     35  O1S SGN d   1     -35.459  30.783 -29.069  0.00  0.00    -0.582 OA
ENDBRANCH  30  32
ENDBRANCH   4  30
BRANCH   2  36
ATOM     36  O1  SGN d   1     -38.701  29.748 -32.686  0.00  0.00    -0.369 OA
ATOM     37  H   SGN d   1     -38.549  28.907 -33.145  0.00  0.00     0.212 HD
ENDBRANCH   2  36
TORSDOF 13
ENDMDL
MODEL 67
REMARK VINA RESULT:      -4.5      2.711      6.199
REMARK  13 active torsions:
REMARK  status: ('A' for Active; 'I' for Inactive)
REMARK    1  A    between atoms: C6_1  and  C5_27 
REMARK    2  A    between atoms: C6_1  and  O6_30 
REMARK    3  A    between atoms: O3_2  and  C3_3 
REMARK    4  A    between atoms: C6_4  and  C5_23 
REMARK    5  A    between atoms: C6_4  and  O62_11 
REMARK    6  A    between atoms: C1_6  and  O1_26 
REMARK    7  A    between atoms: C1_7  and  O1_9 
REMARK    8  A    between atoms: O1_9  and  C4_31 
REMARK    9  A    between atoms: C3_10  and  O3_29 
REMARK   10  A    between atoms: S_13  and  O2_22 
REMARK   11  A    between atoms: N_19  and  C2_25 
REMARK   12  A    between atoms: N_19  and  S1_28 
REMARK   13  A    between atoms: C2_20  and  O2_22 
ROOT
ATOM      1  C1  SGN d   1     -37.001  28.484 -33.987  0.00  0.00     0.000 C 
ATOM      2  C2  SGN d   1     -37.075  28.225 -32.492  0.00  0.00     0.000 C 
ATOM      3  C3  SGN d   1     -37.715  26.868 -32.251  0.00  0.00     0.000 C 
ATOM      4  C4  SGN d   1     -39.064  26.801 -32.948  0.00  0.00     0.000 C 
ATOM      5  C5  SGN d   1     -38.894  27.153 -34.417  0.00  0.00     0.000 C 
ATOM      6  O5  SGN d   1     -38.324  28.465 -34.544  0.00  0.00     0.000 OA
ENDROOT
BRANCH   6   7
ATOM      7  O1  SGN d   1     -39.586  25.469 -32.831  0.00  0.00     0.000 OA
BRANCH   7   8
ATOM      8  C1  IDS d   2     -40.934  25.472 -32.342  0.00  0.00     0.000 C 
ATOM      9  C2  IDS d   2     -41.132  24.267 -31.435  0.00  0.00     0.000 C 
ATOM     10  C3  IDS d   2     -42.369  24.482 -30.580  0.00  0.00     0.000 C 
ATOM     11  C4  IDS d   2     -42.105  25.649 -29.642  0.00  0.00     0.000 C 
ATOM     12  C5  IDS d   2     -41.003  26.519 -30.226  0.00  0.00     0.000 C 
ATOM     13  O5  IDS d   2     -41.227  26.688 -31.633  0.00  0.00     0.000 OA
BRANCH   9  14
ATOM     14  O2  IDS d   2     -41.257  23.079 -32.231  0.00  0.00     0.000 OA
BRANCH  14  15
ATOM     15  S   IDS d   2     -40.347  21.987 -32.033  0.00  0.00     0.000 S 
ATOM     16  O3S IDS d   2     -38.909  22.495 -32.149  0.00  0.00     0.000 OA
ATOM     17  O1S IDS d   2     -40.567  21.388 -30.642  0.00  0.00     0.000 OA
ATOM     18  O2S IDS d   2     -40.596  20.913 -33.094  0.00  0.00     0.000 OA
ENDBRANCH  14  15
ENDBRANCH   9  14
BRANCH  10  19
ATOM     19  O3  IDS d   2     -42.625  23.299 -29.806  0.00  0.00     0.000 OA
ATOM     20  H   IDS d   2     -43.579  23.210 -29.658  0.00  0.00     0.000 HD
ENDBRANCH  10  19
BRANCH  12  21
ATOM     21  C6  IDS d   2     -41.024  27.886 -29.540  0.00  0.00     0.000 C 
ATOM     22  O61 IDS d   2     -42.006  28.138 -28.812  0.00  0.00     0.000 OA
BRANCH  21  23
ATOM     23  O62 IDS d   2     -40.043  28.638 -29.740  0.00  0.00     0.000 OA
ENDBRANCH  21  23
ENDBRANCH  12  21
ENDBRANCH   7   8
ENDBRANCH   6   7
BRANCH   1  25
ATOM     25  O3  SGN d   1     -37.900  26.671 -30.841  0.00  0.00    -0.391 OA
ATOM     26  H   SGN d   1     -38.644  26.146 -31.178  0.00  0.00     0.210 HD
ENDBRANCH   1  25
BRANCH   5  27
ATOM     27  C6  SGN d   1     -40.242  27.120 -35.116  0.00  0.00     0.198 C 
BRANCH  27  28
ATOM     28  O6  SGN d   1     -40.125  27.706 -36.415  0.00  0.00    -0.398 OA
ATOM     29  H   SGN d   1     -39.971  28.660 -36.326  0.00  0.00     0.209 HD
ENDBRANCH  27  28
ENDBRANCH   5  27
BRANCH   4  30
ATOM     30  N   SGN d   1     -35.740  28.275 -31.876  0.00  0.00    -0.189 NA
ATOM     31  H   SGN d   1     -35.619  28.779 -32.754  0.00  0.00     0.143 HD
BRANCH  30  32
ATOM     32  S1  SGN d   1     -35.345  29.256 -30.635  0.00  0.00     0.183 S 
ATOM     33  O2S SGN d   1     -35.277  30.706 -31.121  0.00  0.00    -0.582 OA
ATOM     34  O3S SGN d   1     -36.399  29.126 -29.534  0.00  0.00    -0.582 OA
ATOM     35  O1S SGN d   1     -33.980  28.845 -30.078  0.00  0.00    -0.582 OA
ENDBRANCH  30  32
ENDBRANCH   4  30
BRANCH   2  36
ATOM     36  O1  SGN d   1     -36.201  27.468 -34.612  0.00  0.00    -0.369 OA
ATOM     37  H   SGN d   1     -36.164  28.389 -34.914  0.00  0.00     0.212 HD
ENDBRANCH   2  36
TORSDOF 13
ENDMDL
MODEL 68
REMARK VINA RESULT:      -4.5      5.520      8.898
REMARK  13 active torsions:
REMARK  status: ('A' for Active; 'I' for Inactive)
REMARK    1  A    between atoms: C6_1  and  C5_27 
REMARK    2  A    between atoms: C6_1  and  O6_30 
REMARK    3  A    between atoms: O3_2  and  C3_3 
REMARK    4  A    between atoms: C6_4  and  C5_23 
REMARK    5  A    between atoms: C6_4  and  O62_11 
REMARK    6  A    between atoms: C1_6  and  O1_26 
REMARK    7  A    between atoms: C1_7  and  O1_9 
REMARK    8  A    between atoms: O1_9  and  C4_31 
REMARK    9  A    between atoms: C3_10  and  O3_29 
REMARK   10  A    between atoms: S_13  and  O2_22 
REMARK   11  A    between atoms: N_19  and  C2_25 
REMARK   12  A    between atoms: N_19  and  S1_28 
REMARK   13  A    between atoms: C2_20  and  O2_22 
ROOT
ATOM      1  C1  SGN d   1     -37.504  26.818 -30.758  0.00  0.00     0.000 C 
ATOM      2  C2  SGN d   1     -36.874  28.044 -31.399  0.00  0.00     0.000 C 
ATOM      3  C3  SGN d   1     -36.016  28.762 -30.370  0.00  0.00     0.000 C 
ATOM      4  C4  SGN d   1     -36.845  29.077 -29.135  0.00  0.00     0.000 C 
ATOM      5  C5  SGN d   1     -37.494  27.802 -28.620  0.00  0.00     0.000 C 
ATOM      6  O5  SGN d   1     -38.315  27.222 -29.646  0.00  0.00     0.000 OA
ENDROOT
BRANCH   6   7
ATOM      7  O1  SGN d   1     -35.987  29.622 -28.122  0.00  0.00     0.000 OA
BRANCH   7   8
ATOM      8  C1  IDS d   2     -34.644  29.200 -27.848  0.00  0.00     0.000 C 
ATOM      9  C2  IDS d   2     -33.791  30.427 -27.564  0.00  0.00     0.000 C 
ATOM     10  C3  IDS d   2     -32.516  29.997 -26.858  0.00  0.00     0.000 C 
ATOM     11  C4  IDS d   2     -32.889  29.443 -25.492  0.00  0.00     0.000 C 
ATOM     12  C5  IDS d   2     -34.342  28.995 -25.515  0.00  0.00     0.000 C 
ATOM     13  O5  IDS d   2     -34.602  28.290 -26.736  0.00  0.00     0.000 OA
BRANCH   9  14
ATOM     14  O2  IDS d   2     -33.494  31.105 -28.793  0.00  0.00     0.000 OA
BRANCH  14  15
ATOM     15  S   IDS d   2     -33.835  32.491 -28.946  0.00  0.00     0.000 S 
ATOM     16  O3S IDS d   2     -32.853  33.151 -29.916  0.00  0.00     0.000 OA
ATOM     17  O1S IDS d   2     -35.256  32.608 -29.500  0.00  0.00     0.000 OA
ATOM     18  O2S IDS d   2     -33.759  33.190 -27.588  0.00  0.00     0.000 OA
ENDBRANCH  14  15
ENDBRANCH   9  14
BRANCH  10  19
ATOM     19  O3  IDS d   2     -31.656  31.135 -26.691  0.00  0.00     0.000 OA
ATOM     20  H   IDS d   2     -30.801  30.958 -27.112  0.00  0.00     0.000 HD
ENDBRANCH  10  19
BRANCH  12  21
ATOM     21  C6  IDS d   2     -34.602  28.067 -24.327  0.00  0.00     0.000 C 
ATOM     22  O61 IDS d   2     -33.622  27.439 -23.876  0.00  0.00     0.000 OA
BRANCH  21  23
ATOM     23  O62 IDS d   2     -35.771  28.028 -23.881  0.00  0.00     0.000 OA
ENDBRANCH  21  23
ENDBRANCH  12  21
ENDBRANCH   7   8
ENDBRANCH   6   7
BRANCH   1  25
ATOM     25  O3  SGN d   1     -35.519  29.985 -30.932  0.00  0.00    -0.391 OA
ATOM     26  H   SGN d   1     -34.993  29.876 -30.124  0.00  0.00     0.210 HD
ENDBRANCH   1  25
BRANCH   5  27
ATOM     27  C6  SGN d   1     -38.351  28.114 -27.405  0.00  0.00     0.198 C 
BRANCH  27  28
ATOM     28  O6  SGN d   1     -37.592  27.890 -26.213  0.00  0.00    -0.398 OA
ATOM     29  H   SGN d   1     -37.866  27.051 -25.809  0.00  0.00     0.209 HD
ENDBRANCH  27  28
ENDBRANCH   5  27
BRANCH   4  30
ATOM     30  N   SGN d   1     -36.063  27.676 -32.570  0.00  0.00    -0.189 NA
ATOM     31  H   SGN d   1     -35.785  26.769 -32.196  0.00  0.00     0.143 HD
BRANCH  30  32
ATOM     32  S1  SGN d   1     -37.004  27.450 -33.883  0.00  0.00     0.183 S 
ATOM     33  O2S SGN d   1     -36.259  27.909 -35.139  0.00  0.00    -0.582 OA
ATOM     34  O3S SGN d   1     -37.356  25.966 -34.002  0.00  0.00    -0.582 OA
ATOM     35  O1S SGN d   1     -38.290  28.264 -33.732  0.00  0.00    -0.582 OA
ENDBRANCH  30  32
ENDBRANCH   4  30
BRANCH   2  36
ATOM     36  O1  SGN d   1     -36.471  25.930 -30.304  0.00  0.00    -0.369 OA
ATOM     37  H   SGN d   1     -35.869  26.376 -29.688  0.00  0.00     0.212 HD
ENDBRANCH   2  36
TORSDOF 13
ENDMDL
MODEL 69
REMARK VINA RESULT:      -4.5      2.096      3.402
REMARK  13 active torsions:
REMARK  status: ('A' for Active; 'I' for Inactive)
REMARK    1  A    between atoms: C6_1  and  C5_27 
REMARK    2  A    between atoms: C6_1  and  O6_30 
REMARK    3  A    between atoms: O3_2  and  C3_3 
REMARK    4  A    between atoms: C6_4  and  C5_23 
REMARK    5  A    between atoms: C6_4  and  O62_11 
REMARK    6  A    between atoms: C1_6  and  O1_26 
REMARK    7  A    between atoms: C1_7  and  O1_9 
REMARK    8  A    between atoms: O1_9  and  C4_31 
REMARK    9  A    between atoms: C3_10  and  O3_29 
REMARK   10  A    between atoms: S_13  and  O2_22 
REMARK   11  A    between atoms: N_19  and  C2_25 
REMARK   12  A    between atoms: N_19  and  S1_28 
REMARK   13  A    between atoms: C2_20  and  O2_22 
ROOT
ATOM      1  C1  SGN d   1     -39.143  24.998 -34.733  0.00  0.00     0.000 C 
ATOM      2  C2  SGN d   1     -38.977  23.977 -33.619  0.00  0.00     0.000 C 
ATOM      3  C3  SGN d   1     -38.966  24.696 -32.280  0.00  0.00     0.000 C 
ATOM      4  C4  SGN d   1     -37.897  25.776 -32.282  0.00  0.00     0.000 C 
ATOM      5  C5  SGN d   1     -38.105  26.695 -33.475  0.00  0.00     0.000 C 
ATOM      6  O5  SGN d   1     -38.057  25.934 -34.693  0.00  0.00     0.000 OA
ENDROOT
BRANCH   6   7
ATOM      7  O1  SGN d   1     -37.998  26.536 -31.068  0.00  0.00     0.000 OA
BRANCH   7   8
ATOM      8  C1  IDS d   2     -38.969  27.427 -30.502  0.00  0.00     0.000 C 
ATOM      9  C2  IDS d   2     -38.435  28.850 -30.577  0.00  0.00     0.000 C 
ATOM     10  C3  IDS d   2     -39.586  29.826 -30.400  0.00  0.00     0.000 C 
ATOM     11  C4  IDS d   2     -40.520  29.685 -31.591  0.00  0.00     0.000 C 
ATOM     12  C5  IDS d   2     -40.322  28.315 -32.221  0.00  0.00     0.000 C 
ATOM     13  O5  IDS d   2     -40.229  27.326 -31.186  0.00  0.00     0.000 OA
BRANCH   9  14
ATOM     14  O2  IDS d   2     -37.435  29.045 -29.566  0.00  0.00     0.000 OA
BRANCH  14  15
ATOM     15  S   IDS d   2     -36.143  29.553 -29.927  0.00  0.00     0.000 S 
ATOM     16  O3S IDS d   2     -35.653  30.514 -28.841  0.00  0.00     0.000 OA
ATOM     17  O1S IDS d   2     -35.158  28.391 -30.062  0.00  0.00     0.000 OA
ATOM     18  O2S IDS d   2     -36.239  30.297 -31.261  0.00  0.00     0.000 OA
ENDBRANCH  14  15
ENDBRANCH   9  14
BRANCH  10  19
ATOM     19  O3  IDS d   2     -39.072  31.166 -30.355  0.00  0.00     0.000 OA
ATOM     20  H   IDS d   2     -39.331  31.583 -29.519  0.00  0.00     0.000 HD
ENDBRANCH  10  19
BRANCH  12  21
ATOM     21  C6  IDS d   2     -41.518  27.997 -33.122  0.00  0.00     0.000 C 
ATOM     22  O61 IDS d   2     -41.556  28.568 -34.231  0.00  0.00     0.000 OA
BRANCH  21  23
ATOM     23  O62 IDS d   2     -42.351  27.170 -32.690  0.00  0.00     0.000 OA
ENDBRANCH  21  23
ENDBRANCH  12  21
ENDBRANCH   7   8
ENDBRANCH   6   7
BRANCH   1  25
ATOM     25  O3  SGN d   1     -38.686  23.753 -31.234  0.00  0.00    -0.391 OA
ATOM     26  H   SGN d   1     -39.584  23.424 -31.074  0.00  0.00     0.210 HD
ENDBRANCH   1  25
BRANCH   5  27
ATOM     27  C6  SGN d   1     -37.022  27.759 -33.502  0.00  0.00     0.198 C 
BRANCH  27  28
ATOM     28  O6  SGN d   1     -35.931  27.355 -32.670  0.00  0.00    -0.398 OA
ATOM     29  H   SGN d   1     -35.714  28.070 -32.051  0.00  0.00     0.209 HD
ENDBRANCH  27  28
ENDBRANCH   5  27
BRANCH   4  30
ATOM     30  N   SGN d   1     -40.053  22.974 -33.651  0.00  0.00    -0.189 NA
ATOM     31  H   SGN d   1     -39.329  22.662 -34.298  0.00  0.00     0.143 HD
BRANCH  30  32
ATOM     32  S1  SGN d   1     -40.723  21.676 -32.926  0.00  0.00     0.183 S 
ATOM     33  O2S SGN d   1     -42.091  22.052 -32.353  0.00  0.00    -0.582 OA
ATOM     34  O3S SGN d   1     -40.880  20.552 -33.952  0.00  0.00    -0.582 OA
ATOM     35  O1S SGN d   1     -39.813  21.202 -31.792  0.00  0.00    -0.582 OA
ENDBRANCH  30  32
ENDBRANCH   4  30
BRANCH   2  36
ATOM     36  O1  SGN d   1     -40.387  25.696 -34.563  0.00  0.00    -0.369 OA
ATOM     37  H   SGN d   1     -39.749  25.808 -35.285  0.00  0.00     0.212 HD
ENDBRANCH   2  36
TORSDOF 13
ENDMDL
MODEL 70
REMARK VINA RESULT:      -4.5      3.537      5.953
REMARK  13 active torsions:
REMARK  status: ('A' for Active; 'I' for Inactive)
REMARK    1  A    between atoms: C6_1  and  C5_27 
REMARK    2  A    between atoms: C6_1  and  O6_30 
REMARK    3  A    between atoms: O3_2  and  C3_3 
REMARK    4  A    between atoms: C6_4  and  C5_23 
REMARK    5  A    between atoms: C6_4  and  O62_11 
REMARK    6  A    between atoms: C1_6  and  O1_26 
REMARK    7  A    between atoms: C1_7  and  O1_9 
REMARK    8  A    between atoms: O1_9  and  C4_31 
REMARK    9  A    between atoms: C3_10  and  O3_29 
REMARK   10  A    between atoms: S_13  and  O2_22 
REMARK   11  A    between atoms: N_19  and  C2_25 
REMARK   12  A    between atoms: N_19  and  S1_28 
REMARK   13  A    between atoms: C2_20  and  O2_22 
ROOT
ATOM      1  C1  SGN d   1     -37.410  27.036 -34.932  0.00  0.00     0.000 C 
ATOM      2  C2  SGN d   1     -38.118  26.055 -34.013  0.00  0.00     0.000 C 
ATOM      3  C3  SGN d   1     -38.754  26.817 -32.862  0.00  0.00     0.000 C 
ATOM      4  C4  SGN d   1     -37.704  27.663 -32.159  0.00  0.00     0.000 C 
ATOM      5  C5  SGN d   1     -37.002  28.549 -33.176  0.00  0.00     0.000 C 
ATOM      6  O5  SGN d   1     -36.398  27.739 -34.197  0.00  0.00     0.000 OA
ENDROOT
BRANCH   6   7
ATOM      7  O1  SGN d   1     -38.347  28.483 -31.172  0.00  0.00     0.000 OA
BRANCH   7   8
ATOM      8  C1  IDS d   2     -37.987  27.835 -29.944  0.00  0.00     0.000 C 
ATOM      9  C2  IDS d   2     -37.648  28.897 -28.909  0.00  0.00     0.000 C 
ATOM     10  C3  IDS d   2     -37.694  28.277 -27.522  0.00  0.00     0.000 C 
ATOM     11  C4  IDS d   2     -39.129  27.873 -27.227  0.00  0.00     0.000 C 
ATOM     12  C5  IDS d   2     -39.880  27.700 -28.538  0.00  0.00     0.000 C 
ATOM     13  O5  IDS d   2     -39.050  26.992 -29.469  0.00  0.00     0.000 OA
BRANCH   9  14
ATOM     14  O2  IDS d   2     -36.349  29.443 -29.184  0.00  0.00     0.000 OA
BRANCH  14  15
ATOM     15  S   IDS d   2     -36.095  30.836 -28.950  0.00  0.00     0.000 S 
ATOM     16  O3S IDS d   2     -35.332  31.421 -30.140  0.00  0.00     0.000 OA
ATOM     17  O1S IDS d   2     -37.425  31.575 -28.783  0.00  0.00     0.000 OA
ATOM     18  O2S IDS d   2     -35.261  30.998 -27.678  0.00  0.00     0.000 OA
ENDBRANCH  14  15
ENDBRANCH   9  14
BRANCH  10  19
ATOM     19  O3  IDS d   2     -37.263  29.244 -26.553  0.00  0.00     0.000 OA
ATOM     20  H   IDS d   2     -36.295  29.302 -26.562  0.00  0.00     0.000 HD
ENDBRANCH  10  19
BRANCH  12  21
ATOM     21  C6  IDS d   2     -41.159  26.900 -28.286  0.00  0.00     0.000 C 
ATOM     22  O61 IDS d   2     -41.036  25.820 -27.671  0.00  0.00     0.000 OA
BRANCH  21  23
ATOM     23  O62 IDS d   2     -42.232  27.399 -28.691  0.00  0.00     0.000 OA
ENDBRANCH  21  23
ENDBRANCH  12  21
ENDBRANCH   7   8
ENDBRANCH   6   7
BRANCH   1  25
ATOM     25  O3  SGN d   1     -39.317  25.887 -31.925  0.00  0.00    -0.391 OA
ATOM     26  H   SGN d   1     -39.051  26.583 -31.305  0.00  0.00     0.210 HD
ENDBRANCH   1  25
BRANCH   5  27
ATOM     27  C6  SGN d   1     -35.929  29.374 -32.487  0.00  0.00     0.198 C 
BRANCH  27  28
ATOM     28  O6  SGN d   1     -35.152  28.533 -31.630  0.00  0.00    -0.398 OA
ATOM     29  H   SGN d   1     -35.642  27.716 -31.449  0.00  0.00     0.209 HD
ENDBRANCH  27  28
ENDBRANCH   5  27
BRANCH   4  30
ATOM     30  N   SGN d   1     -39.139  25.285 -34.740  0.00  0.00    -0.189 NA
ATOM     31  H   SGN d   1     -38.867  24.458 -34.208  0.00  0.00     0.143 HD
BRANCH  30  32
ATOM     32  S1  SGN d   1     -40.658  25.088 -35.299  0.00  0.00     0.183 S 
ATOM     33  O2S SGN d   1     -40.711  23.885 -36.243  0.00  0.00    -0.582 OA
ATOM     34  O3S SGN d   1     -41.605  24.864 -34.118  0.00  0.00    -0.582 OA
ATOM     35  O1S SGN d   1     -41.086  26.345 -36.058  0.00  0.00    -0.582 OA
ENDBRANCH  30  32
ENDBRANCH   4  30
BRANCH   2  36
ATOM     36  O1  SGN d   1     -38.362  27.974 -35.458  0.00  0.00    -0.369 OA
ATOM     37  H   SGN d   1     -37.408  28.135 -35.388  0.00  0.00     0.212 HD
ENDBRANCH   2  36
TORSDOF 13
ENDMDL
MODEL 71
REMARK VINA RESULT:      -4.5      2.799      4.309
REMARK  13 active torsions:
REMARK  status: ('A' for Active; 'I' for Inactive)
REMARK    1  A    between atoms: C6_1  and  C5_27 
REMARK    2  A    between atoms: C6_1  and  O6_30 
REMARK    3  A    between atoms: O3_2  and  C3_3 
REMARK    4  A    between atoms: C6_4  and  C5_23 
REMARK    5  A    between atoms: C6_4  and  O62_11 
REMARK    6  A    between atoms: C1_6  and  O1_26 
REMARK    7  A    between atoms: C1_7  and  O1_9 
REMARK    8  A    between atoms: O1_9  and  C4_31 
REMARK    9  A    between atoms: C3_10  and  O3_29 
REMARK   10  A    between atoms: S_13  and  O2_22 
REMARK   11  A    between atoms: N_19  and  C2_25 
REMARK   12  A    between atoms: N_19  and  S1_28 
REMARK   13  A    between atoms: C2_20  and  O2_22 
ROOT
ATOM      1  C1  SGN d   1     -37.980  24.152 -33.839  0.00  0.00     0.000 C 
ATOM      2  C2  SGN d   1     -38.773  24.015 -32.549  0.00  0.00     0.000 C 
ATOM      3  C3  SGN d   1     -39.334  25.373 -32.161  0.00  0.00     0.000 C 
ATOM      4  C4  SGN d   1     -38.211  26.394 -32.081  0.00  0.00     0.000 C 
ATOM      5  C5  SGN d   1     -37.433  26.396 -33.387  0.00  0.00     0.000 C 
ATOM      6  O5  SGN d   1     -36.907  25.085 -33.646  0.00  0.00     0.000 OA
ENDROOT
BRANCH   6   7
ATOM      7  O1  SGN d   1     -38.775  27.694 -31.855  0.00  0.00     0.000 OA
BRANCH   7   8
ATOM      8  C1  IDS d   2     -38.290  28.137 -30.580  0.00  0.00     0.000 C 
ATOM      9  C2  IDS d   2     -38.422  29.650 -30.501  0.00  0.00     0.000 C 
ATOM     10  C3  IDS d   2     -38.336  30.084 -29.048  0.00  0.00     0.000 C 
ATOM     11  C4  IDS d   2     -39.549  29.538 -28.312  0.00  0.00     0.000 C 
ATOM     12  C5  IDS d   2     -40.099  28.343 -29.076  0.00  0.00     0.000 C 
ATOM     13  O5  IDS d   2     -39.011  27.512 -29.505  0.00  0.00     0.000 OA
BRANCH   9  14
ATOM     14  O2  IDS d   2     -37.390  30.267 -31.284  0.00  0.00     0.000 OA
BRANCH  14  15
ATOM     15  S   IDS d   2     -36.024  30.198 -30.848  0.00  0.00     0.000 S 
ATOM     16  O3S IDS d   2     -35.774  28.850 -30.169  0.00  0.00     0.000 OA
ATOM     17  O1S IDS d   2     -35.096  30.339 -32.057  0.00  0.00     0.000 OA
ATOM     18  O2S IDS d   2     -35.744  31.329 -29.857  0.00  0.00     0.000 OA
ENDBRANCH  14  15
ENDBRANCH   9  14
BRANCH  10  19
ATOM     19  O3  IDS d   2     -38.344  31.518 -28.977  0.00  0.00     0.000 OA
ATOM     20  H   IDS d   2     -37.437  31.842 -28.871  0.00  0.00     0.000 HD
ENDBRANCH  10  19
BRANCH  12  21
ATOM     21  C6  IDS d   2     -41.021  27.539 -28.158  0.00  0.00     0.000 C 
ATOM     22  O61 IDS d   2     -41.759  28.189 -27.389  0.00  0.00     0.000 OA
BRANCH  21  23
ATOM     23  O62 IDS d   2     -40.985  26.293 -28.265  0.00  0.00     0.000 OA
ENDBRANCH  21  23
ENDBRANCH  12  21
ENDBRANCH   7   8
ENDBRANCH   6   7
BRANCH   1  25
ATOM     25  O3  SGN d   1     -39.978  25.275 -30.882  0.00  0.00    -0.391 OA
ATOM     26  H   SGN d   1     -39.480  24.822 -30.184  0.00  0.00     0.210 HD
ENDBRANCH   1  25
BRANCH   5  27
ATOM     27  C6  SGN d   1     -36.288  27.391 -33.303  0.00  0.00     0.198 C 
BRANCH  27  28
ATOM     28  O6  SGN d   1     -36.684  28.630 -33.899  0.00  0.00    -0.398 OA
ATOM     29  H   SGN d   1     -35.919  29.037 -34.336  0.00  0.00     0.209 HD
ENDBRANCH  27  28
ENDBRANCH   5  27
BRANCH   4  30
ATOM     30  N   SGN d   1     -39.861  23.036 -32.695  0.00  0.00    -0.189 NA
ATOM     31  H   SGN d   1     -39.040  22.659 -33.169  0.00  0.00     0.143 HD
BRANCH  30  32
ATOM     32  S1  SGN d   1     -40.447  21.917 -31.663  0.00  0.00     0.183 S 
ATOM     33  O2S SGN d   1     -39.602  20.644 -31.745  0.00  0.00    -0.582 OA
ATOM     34  O3S SGN d   1     -40.409  22.475 -30.240  0.00  0.00    -0.582 OA
ATOM     35  O1S SGN d   1     -41.893  21.589 -32.039  0.00  0.00    -0.582 OA
ENDBRANCH  30  32
ENDBRANCH   4  30
BRANCH   2  36
ATOM     36  O1  SGN d   1     -38.844  24.622 -34.886  0.00  0.00    -0.369 OA
ATOM     37  H   SGN d   1     -38.868  25.558 -34.631  0.00  0.00     0.212 HD
ENDBRANCH   2  36
TORSDOF 13
ENDMDL
MODEL 72
REMARK VINA RESULT:      -4.5      4.819      8.031
REMARK  13 active torsions:
REMARK  status: ('A' for Active; 'I' for Inactive)
REMARK    1  A    between atoms: C6_1  and  C5_27 
REMARK    2  A    between atoms: C6_1  and  O6_30 
REMARK    3  A    between atoms: O3_2  and  C3_3 
REMARK    4  A    between atoms: C6_4  and  C5_23 
REMARK    5  A    between atoms: C6_4  and  O62_11 
REMARK    6  A    between atoms: C1_6  and  O1_26 
REMARK    7  A    between atoms: C1_7  and  O1_9 
REMARK    8  A    between atoms: O1_9  and  C4_31 
REMARK    9  A    between atoms: C3_10  and  O3_29 
REMARK   10  A    between atoms: S_13  and  O2_22 
REMARK   11  A    between atoms: N_19  and  C2_25 
REMARK   12  A    between atoms: N_19  and  S1_28 
REMARK   13  A    between atoms: C2_20  and  O2_22 
ROOT
ATOM      1  C1  SGN d   1     -37.904  29.275 -33.751  0.00  0.00     0.000 C 
ATOM      2  C2  SGN d   1     -38.919  29.964 -32.854  0.00  0.00     0.000 C 
ATOM      3  C3  SGN d   1     -38.453  29.872 -31.410  0.00  0.00     0.000 C 
ATOM      4  C4  SGN d   1     -38.199  28.420 -31.039  0.00  0.00     0.000 C 
ATOM      5  C5  SGN d   1     -37.236  27.802 -32.041  0.00  0.00     0.000 C 
ATOM      6  O5  SGN d   1     -37.780  27.897 -33.366  0.00  0.00     0.000 OA
ENDROOT
BRANCH   6   7
ATOM      7  O1  SGN d   1     -37.624  28.366 -29.725  0.00  0.00     0.000 OA
BRANCH   7   8
ATOM      8  C1  IDS d   2     -36.521  27.800 -29.004  0.00  0.00     0.000 C 
ATOM      9  C2  IDS d   2     -35.543  28.909 -28.649  0.00  0.00     0.000 C 
ATOM     10  C3  IDS d   2     -34.622  28.430 -27.541  0.00  0.00     0.000 C 
ATOM     11  C4  IDS d   2     -35.455  28.215 -26.287  0.00  0.00     0.000 C 
ATOM     12  C5  IDS d   2     -36.908  28.004 -26.683  0.00  0.00     0.000 C 
ATOM     13  O5  IDS d   2     -36.968  27.126 -27.815  0.00  0.00     0.000 OA
BRANCH   9  14
ATOM     14  O2  IDS d   2     -34.793  29.283 -29.815  0.00  0.00     0.000 OA
BRANCH  14  15
ATOM     15  S   IDS d   2     -34.736  30.659 -30.218  0.00  0.00     0.000 S 
ATOM     16  O3S IDS d   2     -34.882  30.750 -31.739  0.00  0.00     0.000 OA
ATOM     17  O1S IDS d   2     -35.874  31.433 -29.549  0.00  0.00     0.000 OA
ATOM     18  O2S IDS d   2     -33.395  31.261 -29.797  0.00  0.00     0.000 OA
ENDBRANCH  14  15
ENDBRANCH   9  14
BRANCH  10  19
ATOM     19  O3  IDS d   2     -33.625  29.430 -27.283  0.00  0.00     0.000 OA
ATOM     20  H   IDS d   2     -33.186  29.671 -28.114  0.00  0.00     0.000 HD
ENDBRANCH  10  19
BRANCH  12  21
ATOM     21  C6  IDS d   2     -37.664  27.375 -25.511  0.00  0.00     0.000 C 
ATOM     22  O61 IDS d   2     -37.059  27.308 -24.421  0.00  0.00     0.000 OA
BRANCH  21  23
ATOM     23  O62 IDS d   2     -38.838  27.000 -25.726  0.00  0.00     0.000 OA
ENDBRANCH  21  23
ENDBRANCH  12  21
ENDBRANCH   7   8
ENDBRANCH   6   7
BRANCH   1  25
ATOM     25  O3  SGN d   1     -39.465  30.411 -30.546  0.00  0.00    -0.391 OA
ATOM     26  H   SGN d   1     -40.294  29.910 -30.598  0.00  0.00     0.210 HD
ENDBRANCH   1  25
BRANCH   5  27
ATOM     27  C6  SGN d   1     -37.001  26.341 -31.696  0.00  0.00     0.198 C 
BRANCH  27  28
ATOM     28  O6  SGN d   1     -38.231  25.743 -31.278  0.00  0.00    -0.398 OA
ATOM     29  H   SGN d   1     -38.323  25.831 -30.316  0.00  0.00     0.209 HD
ENDBRANCH  27  28
ENDBRANCH   5  27
BRANCH   4  30
ATOM     30  N   SGN d   1     -39.103  31.371 -33.241  0.00  0.00    -0.189 NA
ATOM     31  H   SGN d   1     -39.294  30.778 -34.049  0.00  0.00     0.143 HD
BRANCH  30  32
ATOM     32  S1  SGN d   1     -40.278  32.495 -33.110  0.00  0.00     0.183 S 
ATOM     33  O2S SGN d   1     -39.949  33.693 -34.003  0.00  0.00    -0.582 OA
ATOM     34  O3S SGN d   1     -41.613  31.881 -33.536  0.00  0.00    -0.582 OA
ATOM     35  O1S SGN d   1     -40.376  32.959 -31.656  0.00  0.00    -0.582 OA
ENDBRANCH  30  32
ENDBRANCH   4  30
BRANCH   2  36
ATOM     36  O1  SGN d   1     -36.630  29.926 -33.624  0.00  0.00    -0.369 OA
ATOM     37  H   SGN d   1     -36.613  30.895 -33.588  0.00  0.00     0.212 HD
ENDBRANCH   2  36
TORSDOF 13
ENDMDL
MODEL 73
REMARK VINA RESULT:      -4.4      4.628      7.604
REMARK  13 active torsions:
REMARK  status: ('A' for Active; 'I' for Inactive)
REMARK    1  A    between atoms: C6_1  and  C5_27 
REMARK    2  A    between atoms: C6_1  and  O6_30 
REMARK    3  A    between atoms: O3_2  and  C3_3 
REMARK    4  A    between atoms: C6_4  and  C5_23 
REMARK    5  A    between atoms: C6_4  and  O62_11 
REMARK    6  A    between atoms: C1_6  and  O1_26 
REMARK    7  A    between atoms: C1_7  and  O1_9 
REMARK    8  A    between atoms: O1_9  and  C4_31 
REMARK    9  A    between atoms: C3_10  and  O3_29 
REMARK   10  A    between atoms: S_13  and  O2_22 
REMARK   11  A    between atoms: N_19  and  C2_25 
REMARK   12  A    between atoms: N_19  and  S1_28 
REMARK   13  A    between atoms: C2_20  and  O2_22 
ROOT
ATOM      1  C1  SGN d   1     -39.306  27.940 -30.775  0.00  0.00     0.000 C 
ATOM      2  C2  SGN d   1     -38.347  27.995 -31.952  0.00  0.00     0.000 C 
ATOM      3  C3  SGN d   1     -37.037  28.619 -31.501  0.00  0.00     0.000 C 
ATOM      4  C4  SGN d   1     -37.301  29.975 -30.867  0.00  0.00     0.000 C 
ATOM      5  C5  SGN d   1     -38.330  29.824 -29.757  0.00  0.00     0.000 C 
ATOM      6  O5  SGN d   1     -39.544  29.269 -30.286  0.00  0.00     0.000 OA
ENDROOT
BRANCH   6   7
ATOM      7  O1  SGN d   1     -36.075  30.483 -30.319  0.00  0.00     0.000 OA
BRANCH   7   8
ATOM      8  C1  IDS d   2     -35.590  31.213 -29.184  0.00  0.00     0.000 C 
ATOM      9  C2  IDS d   2     -34.937  30.241 -28.215  0.00  0.00     0.000 C 
ATOM     10  C3  IDS d   2     -34.052  31.013 -27.251  0.00  0.00     0.000 C 
ATOM     11  C4  IDS d   2     -32.905  31.623 -28.040  0.00  0.00     0.000 C 
ATOM     12  C5  IDS d   2     -33.310  31.740 -29.501  0.00  0.00     0.000 C 
ATOM     13  O5  IDS d   2     -34.656  32.231 -29.582  0.00  0.00     0.000 OA
BRANCH   9  14
ATOM     14  O2  IDS d   2     -35.950  29.508 -27.509  0.00  0.00     0.000 OA
BRANCH  14  15
ATOM     15  S   IDS d   2     -35.876  28.077 -27.433  0.00  0.00     0.000 S 
ATOM     16  O3S IDS d   2     -37.287  27.502 -27.287  0.00  0.00     0.000 OA
ATOM     17  O1S IDS d   2     -35.232  27.532 -28.709  0.00  0.00     0.000 OA
ATOM     18  O2S IDS d   2     -35.032  27.671 -26.224  0.00  0.00     0.000 OA
ENDBRANCH  14  15
ENDBRANCH   9  14
BRANCH  10  19
ATOM     19  O3  IDS d   2     -33.524  30.114 -26.264  0.00  0.00     0.000 OA
ATOM     20  H   IDS d   2     -34.004  30.232 -25.430  0.00  0.00     0.000 HD
ENDBRANCH  10  19
BRANCH  12  21
ATOM     21  C6  IDS d   2     -32.370  32.718 -30.209  0.00  0.00     0.000 C 
ATOM     22  O61 IDS d   2     -32.532  33.932 -29.967  0.00  0.00     0.000 OA
BRANCH  21  23
ATOM     23  O62 IDS d   2     -31.494  32.226 -30.955  0.00  0.00     0.000 OA
ENDBRANCH  21  23
ENDBRANCH  12  21
ENDBRANCH   7   8
ENDBRANCH   6   7
BRANCH   1  25
ATOM     25  O3  SGN d   1     -36.173  28.787 -32.635  0.00  0.00    -0.391 OA
ATOM     26  H   SGN d   1     -36.528  29.471 -33.223  0.00  0.00     0.210 HD
ENDBRANCH   1  25
BRANCH   5  27
ATOM     27  C6  SGN d   1     -38.624  31.180 -29.139  0.00  0.00     0.198 C 
BRANCH  27  28
ATOM     28  O6  SGN d   1     -38.652  31.062 -27.713  0.00  0.00    -0.398 OA
ATOM     29  H   SGN d   1     -39.250  31.732 -27.345  0.00  0.00     0.209 HD
ENDBRANCH  27  28
ENDBRANCH   5  27
BRANCH   4  30
ATOM     30  N   SGN d   1     -38.108  26.654 -32.507  0.00  0.00    -0.189 NA
ATOM     31  H   SGN d   1     -37.489  26.832 -33.297  0.00  0.00     0.143 HD
BRANCH  30  32
ATOM     32  S1  SGN d   1     -37.900  25.119 -31.996  0.00  0.00     0.183 S 
ATOM     33  O2S SGN d   1     -39.238  24.541 -31.531  0.00  0.00    -0.582 OA
ATOM     34  O3S SGN d   1     -37.342  24.277 -33.145  0.00  0.00    -0.582 OA
ATOM     35  O1S SGN d   1     -36.910  25.102 -30.831  0.00  0.00    -0.582 OA
ENDBRANCH  30  32
ENDBRANCH   4  30
BRANCH   2  36
ATOM     36  O1  SGN d   1     -38.738  27.138 -29.728  0.00  0.00    -0.369 OA
ATOM     37  H   SGN d   1     -39.411  26.539 -30.089  0.00  0.00     0.212 HD
ENDBRANCH   2  36
TORSDOF 13
ENDMDL
MODEL 74
REMARK VINA RESULT:      -4.4      3.538      5.930
REMARK  13 active torsions:
REMARK  status: ('A' for Active; 'I' for Inactive)
REMARK    1  A    between atoms: C6_1  and  C5_27 
REMARK    2  A    between atoms: C6_1  and  O6_30 
REMARK    3  A    between atoms: O3_2  and  C3_3 
REMARK    4  A    between atoms: C6_4  and  C5_23 
REMARK    5  A    between atoms: C6_4  and  O62_11 
REMARK    6  A    between atoms: C1_6  and  O1_26 
REMARK    7  A    between atoms: C1_7  and  O1_9 
REMARK    8  A    between atoms: O1_9  and  C4_31 
REMARK    9  A    between atoms: C3_10  and  O3_29 
REMARK   10  A    between atoms: S_13  and  O2_22 
REMARK   11  A    between atoms: N_19  and  C2_25 
REMARK   12  A    between atoms: N_19  and  S1_28 
REMARK   13  A    between atoms: C2_20  and  O2_22 
ROOT
ATOM      1  C1  SGN d   1     -37.422  26.641 -34.013  0.00  0.00     0.000 C 
ATOM      2  C2  SGN d   1     -38.086  25.845 -32.901  0.00  0.00     0.000 C 
ATOM      3  C3  SGN d   1     -38.559  26.800 -31.817  0.00  0.00     0.000 C 
ATOM      4  C4  SGN d   1     -37.398  27.658 -31.341  0.00  0.00     0.000 C 
ATOM      5  C5  SGN d   1     -36.754  28.346 -32.534  0.00  0.00     0.000 C 
ATOM      6  O5  SGN d   1     -36.302  27.365 -33.481  0.00  0.00     0.000 OA
ENDROOT
BRANCH   6   7
ATOM      7  O1  SGN d   1     -37.891  28.647 -30.425  0.00  0.00     0.000 OA
BRANCH   7   8
ATOM      8  C1  IDS d   2     -37.447  28.147 -29.156  0.00  0.00     0.000 C 
ATOM      9  C2  IDS d   2     -37.013  29.319 -28.290  0.00  0.00     0.000 C 
ATOM     10  C3  IDS d   2     -36.962  28.876 -26.837  0.00  0.00     0.000 C 
ATOM     11  C4  IDS d   2     -38.376  28.547 -26.387  0.00  0.00     0.000 C 
ATOM     12  C5  IDS d   2     -39.227  28.232 -27.607  0.00  0.00     0.000 C 
ATOM     13  O5  IDS d   2     -38.482  27.395 -28.502  0.00  0.00     0.000 OA
BRANCH   9  14
ATOM     14  O2  IDS d   2     -35.732  29.796 -28.728  0.00  0.00     0.000 OA
BRANCH  14  15
ATOM     15  S   IDS d   2     -35.503  31.206 -28.867  0.00  0.00     0.000 S 
ATOM     16  O3S IDS d   2     -36.838  31.917 -29.096  0.00  0.00     0.000 OA
ATOM     17  O1S IDS d   2     -34.850  31.744 -27.593  0.00  0.00     0.000 OA
ATOM     18  O2S IDS d   2     -34.579  31.460 -30.059  0.00  0.00     0.000 OA
ENDBRANCH  14  15
ENDBRANCH   9  14
BRANCH  10  19
ATOM     19  O3  IDS d   2     -36.443  29.944 -26.031  0.00  0.00     0.000 OA
ATOM     20  H   IDS d   2     -36.792  30.790 -26.351  0.00  0.00     0.000 HD
ENDBRANCH  10  19
BRANCH  12  21
ATOM     21  C6  IDS d   2     -40.495  27.500 -27.162  0.00  0.00     0.000 C 
ATOM     22  O61 IDS d   2     -41.343  28.170 -26.537  0.00  0.00     0.000 OA
BRANCH  21  23
ATOM     23  O62 IDS d   2     -40.597  26.295 -27.481  0.00  0.00     0.000 OA
ENDBRANCH  21  23
ENDBRANCH  12  21
ENDBRANCH   7   8
ENDBRANCH   6   7
BRANCH   1  25
ATOM     25  O3  SGN d   1     -39.076  26.046 -30.710  0.00  0.00    -0.391 OA
ATOM     26  H   SGN d   1     -39.358  26.954 -30.519  0.00  0.00     0.210 HD
ENDBRANCH   1  25
BRANCH   5  27
ATOM     27  C6  SGN d   1     -35.572  29.181 -32.071  0.00  0.00     0.198 C 
BRANCH  27  28
ATOM     28  O6  SGN d   1     -34.830  28.458 -31.085  0.00  0.00    -0.398 OA
ATOM     29  H   SGN d   1     -35.398  28.281 -30.319  0.00  0.00     0.209 HD
ENDBRANCH  27  28
ENDBRANCH   5  27
BRANCH   4  30
ATOM     30  N   SGN d   1     -39.217  25.057 -33.414  0.00  0.00    -0.189 NA
ATOM     31  H   SGN d   1     -38.399  24.868 -33.993  0.00  0.00     0.143 HD
BRANCH  30  32
ATOM     32  S1  SGN d   1     -39.920  23.645 -33.000  0.00  0.00     0.183 S 
ATOM     33  O2S SGN d   1     -40.544  22.994 -34.236  0.00  0.00    -0.582 OA
ATOM     34  O3S SGN d   1     -38.865  22.714 -32.400  0.00  0.00    -0.582 OA
ATOM     35  O1S SGN d   1     -41.011  23.907 -31.961  0.00  0.00    -0.582 OA
ENDBRANCH  30  32
ENDBRANCH   4  30
BRANCH   2  36
ATOM     36  O1  SGN d   1     -38.368  27.563 -34.575  0.00  0.00    -0.369 OA
ATOM     37  H   SGN d   1     -37.455  27.413 -34.867  0.00  0.00     0.212 HD
ENDBRANCH   2  36
TORSDOF 13
ENDMDL
MODEL 75
REMARK VINA RESULT:      -4.4      3.364      4.899
REMARK  13 active torsions:
REMARK  status: ('A' for Active; 'I' for Inactive)
REMARK    1  A    between atoms: C6_1  and  C5_27 
REMARK    2  A    between atoms: C6_1  and  O6_30 
REMARK    3  A    between atoms: O3_2  and  C3_3 
REMARK    4  A    between atoms: C6_4  and  C5_23 
REMARK    5  A    between atoms: C6_4  and  O62_11 
REMARK    6  A    between atoms: C1_6  and  O1_26 
REMARK    7  A    between atoms: C1_7  and  O1_9 
REMARK    8  A    between atoms: O1_9  and  C4_31 
REMARK    9  A    between atoms: C3_10  and  O3_29 
REMARK   10  A    between atoms: S_13  and  O2_22 
REMARK   11  A    between atoms: N_19  and  C2_25 
REMARK   12  A    between atoms: N_19  and  S1_28 
REMARK   13  A    between atoms: C2_20  and  O2_22 
ROOT
ATOM      1  C1  SGN d   1     -38.503  24.453 -34.030  0.00  0.00     0.000 C 
ATOM      2  C2  SGN d   1     -39.797  25.215 -34.266  0.00  0.00     0.000 C 
ATOM      3  C3  SGN d   1     -39.536  26.704 -34.107  0.00  0.00     0.000 C 
ATOM      4  C4  SGN d   1     -38.907  26.977 -32.751  0.00  0.00     0.000 C 
ATOM      5  C5  SGN d   1     -37.669  26.111 -32.581  0.00  0.00     0.000 C 
ATOM      6  O5  SGN d   1     -38.022  24.724 -32.705  0.00  0.00     0.000 OA
ENDROOT
BRANCH   6   7
ATOM      7  O1  SGN d   1     -38.537  28.362 -32.677  0.00  0.00     0.000 OA
BRANCH   7   8
ATOM      8  C1  IDS d   2     -39.333  28.937 -31.631  0.00  0.00     0.000 C 
ATOM      9  C2  IDS d   2     -38.565  30.092 -31.006  0.00  0.00     0.000 C 
ATOM     10  C3  IDS d   2     -39.529  30.970 -30.227  0.00  0.00     0.000 C 
ATOM     11  C4  IDS d   2     -40.491  31.615 -31.211  0.00  0.00     0.000 C 
ATOM     12  C5  IDS d   2     -40.540  30.780 -32.481  0.00  0.00     0.000 C 
ATOM     13  O5  IDS d   2     -40.602  29.390 -32.132  0.00  0.00     0.000 OA
BRANCH   9  14
ATOM     14  O2  IDS d   2     -37.531  29.579 -30.153  0.00  0.00     0.000 OA
BRANCH  14  15
ATOM     15  S   IDS d   2     -36.179  30.030 -30.318  0.00  0.00     0.000 S 
ATOM     16  O3S IDS d   2     -35.929  31.234 -29.407  0.00  0.00     0.000 OA
ATOM     17  O1S IDS d   2     -35.217  28.900 -29.946  0.00  0.00     0.000 OA
ATOM     18  O2S IDS d   2     -35.948  30.436 -31.774  0.00  0.00     0.000 OA
ENDBRANCH  14  15
ENDBRANCH   9  14
BRANCH  10  19
ATOM     19  O3  IDS d   2     -38.793  31.995 -29.541  0.00  0.00     0.000 OA
ATOM     20  H   IDS d   2     -38.890  31.877 -28.584  0.00  0.00     0.000 HD
ENDBRANCH  10  19
BRANCH  12  21
ATOM     21  C6  IDS d   2     -41.786  31.158 -33.285  0.00  0.00     0.000 C 
ATOM     22  O61 IDS d   2     -41.865  32.339 -33.681  0.00  0.00     0.000 OA
BRANCH  21  23
ATOM     23  O62 IDS d   2     -42.617  30.249 -33.507  0.00  0.00     0.000 OA
ENDBRANCH  21  23
ENDBRANCH  12  21
ENDBRANCH   7   8
ENDBRANCH   6   7
BRANCH   1  25
ATOM     25  O3  SGN d   1     -40.777  27.419 -34.207  0.00  0.00    -0.391 OA
ATOM     26  H   SGN d   1     -41.615  26.978 -34.000  0.00  0.00     0.210 HD
ENDBRANCH   1  25
BRANCH   5  27
ATOM     27  C6  SGN d   1     -37.052  26.354 -31.215  0.00  0.00     0.198 C 
BRANCH  27  28
ATOM     28  O6  SGN d   1     -36.708  25.103 -30.614  0.00  0.00    -0.398 OA
ATOM     29  H   SGN d   1     -36.069  24.638 -31.177  0.00  0.00     0.209 HD
ENDBRANCH  27  28
ENDBRANCH   5  27
BRANCH   4  30
ATOM     30  N   SGN d   1     -40.344  24.933 -35.602  0.00  0.00    -0.189 NA
ATOM     31  H   SGN d   1     -40.587  24.153 -34.992  0.00  0.00     0.143 HD
BRANCH  30  32
ATOM     32  S1  SGN d   1     -41.584  25.224 -36.621  0.00  0.00     0.183 S 
ATOM     33  O2S SGN d   1     -42.228  23.902 -37.044  0.00  0.00    -0.582 OA
ATOM     34  O3S SGN d   1     -42.618  26.104 -35.917  0.00  0.00    -0.582 OA
ATOM     35  O1S SGN d   1     -41.061  25.951 -37.861  0.00  0.00    -0.582 OA
ENDBRANCH  30  32
ENDBRANCH   4  30
BRANCH   2  36
ATOM     36  O1  SGN d   1     -37.520  24.865 -34.992  0.00  0.00    -0.369 OA
ATOM     37  H   SGN d   1     -37.843  24.262 -35.679  0.00  0.00     0.212 HD
ENDBRANCH   2  36
TORSDOF 13
ENDMDL
MODEL 76
REMARK VINA RESULT:      -4.4      3.332      6.822
REMARK  13 active torsions:
REMARK  status: ('A' for Active; 'I' for Inactive)
REMARK    1  A    between atoms: C6_1  and  C5_27 
REMARK    2  A    between atoms: C6_1  and  O6_30 
REMARK    3  A    between atoms: O3_2  and  C3_3 
REMARK    4  A    between atoms: C6_4  and  C5_23 
REMARK    5  A    between atoms: C6_4  and  O62_11 
REMARK    6  A    between atoms: C1_6  and  O1_26 
REMARK    7  A    between atoms: C1_7  and  O1_9 
REMARK    8  A    between atoms: O1_9  and  C4_31 
REMARK    9  A    between atoms: C3_10  and  O3_29 
REMARK   10  A    between atoms: S_13  and  O2_22 
REMARK   11  A    between atoms: N_19  and  C2_25 
REMARK   12  A    between atoms: N_19  and  S1_28 
REMARK   13  A    between atoms: C2_20  and  O2_22 
ROOT
ATOM      1  C1  SGN d   1     -36.573  29.796 -32.649  0.00  0.00     0.000 C 
ATOM      2  C2  SGN d   1     -37.354  29.979 -31.358  0.00  0.00     0.000 C 
ATOM      3  C3  SGN d   1     -37.859  28.626 -30.884  0.00  0.00     0.000 C 
ATOM      4  C4  SGN d   1     -38.657  27.955 -31.990  0.00  0.00     0.000 C 
ATOM      5  C5  SGN d   1     -37.817  27.893 -33.256  0.00  0.00     0.000 C 
ATOM      6  O5  SGN d   1     -37.425  29.217 -33.649  0.00  0.00     0.000 OA
ENDROOT
BRANCH   6   7
ATOM      7  O1  SGN d   1     -39.001  26.624 -31.577  0.00  0.00     0.000 OA
BRANCH   7   8
ATOM      8  C1  IDS d   2     -40.428  26.482 -31.617  0.00  0.00     0.000 C 
ATOM      9  C2  IDS d   2     -40.787  25.031 -31.342  0.00  0.00     0.000 C 
ATOM     10  C3  IDS d   2     -42.252  24.943 -30.950  0.00  0.00     0.000 C 
ATOM     11  C4  IDS d   2     -42.435  25.660 -29.622  0.00  0.00     0.000 C 
ATOM     12  C5  IDS d   2     -41.299  26.651 -29.429  0.00  0.00     0.000 C 
ATOM     13  O5  IDS d   2     -41.063  27.347 -30.661  0.00  0.00     0.000 OA
BRANCH   9  14
ATOM     14  O2  IDS d   2     -40.518  24.237 -32.507  0.00  0.00     0.000 OA
BRANCH  14  15
ATOM     15  S   IDS d   2     -39.751  23.030 -32.389  0.00  0.00     0.000 S 
ATOM     16  O3S IDS d   2     -39.785  22.546 -30.938  0.00  0.00     0.000 OA
ATOM     17  O1S IDS d   2     -40.349  21.956 -33.300  0.00  0.00     0.000 OA
ATOM     18  O2S IDS d   2     -38.304  23.300 -32.804  0.00  0.00     0.000 OA
ENDBRANCH  14  15
ENDBRANCH   9  14
BRANCH  10  19
ATOM     19  O3  IDS d   2     -42.625  23.564 -30.802  0.00  0.00     0.000 OA
ATOM     20  H   IDS d   2     -41.841  23.004 -30.910  0.00  0.00     0.000 HD
ENDBRANCH  10  19
BRANCH  12  21
ATOM     21  C6  IDS d   2     -41.686  27.657 -28.343  0.00  0.00     0.000 C 
ATOM     22  O61 IDS d   2     -42.049  27.189 -27.244  0.00  0.00     0.000 OA
BRANCH  21  23
ATOM     23  O62 IDS d   2     -41.586  28.871 -28.630  0.00  0.00     0.000 OA
ENDBRANCH  21  23
ENDBRANCH  12  21
ENDBRANCH   7   8
ENDBRANCH   6   7
BRANCH   1  25
ATOM     25  O3  SGN d   1     -38.700  28.806 -29.735  0.00  0.00    -0.391 OA
ATOM     26  H   SGN d   1     -38.642  27.842 -29.828  0.00  0.00     0.210 HD
ENDBRANCH   1  25
BRANCH   5  27
ATOM     27  C6  SGN d   1     -38.618  27.252 -34.376  0.00  0.00     0.198 C 
BRANCH  27  28
ATOM     28  O6  SGN d   1     -38.475  25.830 -34.316  0.00  0.00    -0.398 OA
ATOM     29  H   SGN d   1     -38.559  25.535 -33.395  0.00  0.00     0.209 HD
ENDBRANCH  27  28
ENDBRANCH   5  27
BRANCH   4  30
ATOM     30  N   SGN d   1     -36.525  30.607 -30.318  0.00  0.00    -0.189 NA
ATOM     31  H   SGN d   1     -37.311  31.248 -30.213  0.00  0.00     0.143 HD
BRANCH  30  32
ATOM     32  S1  SGN d   1     -35.661  30.583 -28.936  0.00  0.00     0.183 S 
ATOM     33  O2S SGN d   1     -36.517  30.019 -27.799  0.00  0.00    -0.582 OA
ATOM     34  O3S SGN d   1     -34.419  29.712 -29.132  0.00  0.00    -0.582 OA
ATOM     35  O1S SGN d   1     -35.228  32.007 -28.583  0.00  0.00    -0.582 OA
ENDBRANCH  30  32
ENDBRANCH   4  30
BRANCH   2  36
ATOM     36  O1  SGN d   1     -35.451  28.931 -32.413  0.00  0.00    -0.369 OA
ATOM     37  H   SGN d   1     -36.001  28.157 -32.612  0.00  0.00     0.212 HD
ENDBRANCH   2  36
TORSDOF 13
ENDMDL
MODEL 77
REMARK VINA RESULT:      -4.4      3.499      6.475
REMARK  13 active torsions:
REMARK  status: ('A' for Active; 'I' for Inactive)
REMARK    1  A    between atoms: C6_1  and  C5_27 
REMARK    2  A    between atoms: C6_1  and  O6_30 
REMARK    3  A    between atoms: O3_2  and  C3_3 
REMARK    4  A    between atoms: C6_4  and  C5_23 
REMARK    5  A    between atoms: C6_4  and  O62_11 
REMARK    6  A    between atoms: C1_6  and  O1_26 
REMARK    7  A    between atoms: C1_7  and  O1_9 
REMARK    8  A    between atoms: O1_9  and  C4_31 
REMARK    9  A    between atoms: C3_10  and  O3_29 
REMARK   10  A    between atoms: S_13  and  O2_22 
REMARK   11  A    between atoms: N_19  and  C2_25 
REMARK   12  A    between atoms: N_19  and  S1_28 
REMARK   13  A    between atoms: C2_20  and  O2_22 
ROOT
ATOM      1  C1  SGN d   1     -37.496  27.507 -34.641  0.00  0.00     0.000 C 
ATOM      2  C2  SGN d   1     -37.639  26.124 -34.026  0.00  0.00     0.000 C 
ATOM      3  C3  SGN d   1     -37.951  26.266 -32.545  0.00  0.00     0.000 C 
ATOM      4  C4  SGN d   1     -36.893  27.125 -31.873  0.00  0.00     0.000 C 
ATOM      5  C5  SGN d   1     -36.772  28.450 -32.609  0.00  0.00     0.000 C 
ATOM      6  O5  SGN d   1     -36.434  28.216 -33.985  0.00  0.00     0.000 OA
ENDROOT
BRANCH   6   7
ATOM      7  O1  SGN d   1     -37.281  27.366 -30.512  0.00  0.00     0.000 OA
BRANCH   7   8
ATOM      8  C1  IDS d   2     -37.735  28.409 -29.638  0.00  0.00     0.000 C 
ATOM      9  C2  IDS d   2     -39.119  28.052 -29.122  0.00  0.00     0.000 C 
ATOM     10  C3  IDS d   2     -39.426  28.889 -27.891  0.00  0.00     0.000 C 
ATOM     11  C4  IDS d   2     -38.468  28.481 -26.784  0.00  0.00     0.000 C 
ATOM     12  C5  IDS d   2     -37.236  27.838 -27.402  0.00  0.00     0.000 C 
ATOM     13  O5  IDS d   2     -36.824  28.603 -28.543  0.00  0.00     0.000 OA
BRANCH   9  14
ATOM     14  O2  IDS d   2     -40.093  28.276 -30.152  0.00  0.00     0.000 OA
BRANCH  14  15
ATOM     15  S   IDS d   2     -40.990  27.222 -30.530  0.00  0.00     0.000 S 
ATOM     16  O3S IDS d   2     -40.359  25.870 -30.189  0.00  0.00     0.000 OA
ATOM     17  O1S IDS d   2     -42.307  27.377 -29.768  0.00  0.00     0.000 OA
ATOM     18  O2S IDS d   2     -41.261  27.293 -32.034  0.00  0.00     0.000 OA
ENDBRANCH  14  15
ENDBRANCH   9  14
BRANCH  10  19
ATOM     19  O3  IDS d   2     -40.776  28.638 -27.469  0.00  0.00     0.000 OA
ATOM     20  H   IDS d   2     -41.079  29.367 -26.906  0.00  0.00     0.000 HD
ENDBRANCH  10  19
BRANCH  12  21
ATOM     21  C6  IDS d   2     -36.107  27.817 -26.369  0.00  0.00     0.000 C 
ATOM     22  O61 IDS d   2     -36.434  27.623 -25.180  0.00  0.00     0.000 OA
BRANCH  21  23
ATOM     23  O62 IDS d   2     -34.942  27.970 -26.798  0.00  0.00     0.000 OA
ENDBRANCH  21  23
ENDBRANCH  12  21
ENDBRANCH   7   8
ENDBRANCH   6   7
BRANCH   1  25
ATOM     25  O3  SGN d   1     -37.965  24.967 -31.934  0.00  0.00    -0.391 OA
ATOM     26  H   SGN d   1     -38.437  24.290 -32.444  0.00  0.00     0.210 HD
ENDBRANCH   1  25
BRANCH   5  27
ATOM     27  C6  SGN d   1     -35.694  29.303 -31.963  0.00  0.00     0.198 C 
BRANCH  27  28
ATOM     28  O6  SGN d   1     -34.848  28.478 -31.157  0.00  0.00    -0.398 OA
ATOM     29  H   SGN d   1     -34.777  27.597 -31.559  0.00  0.00     0.209 HD
ENDBRANCH  27  28
ENDBRANCH   5  27
BRANCH   4  30
ATOM     30  N   SGN d   1     -38.693  25.349 -34.697  0.00  0.00    -0.189 NA
ATOM     31  H   SGN d   1     -38.152  24.493 -34.576  0.00  0.00     0.143 HD
BRANCH  30  32
ATOM     32  S1  SGN d   1     -40.265  24.967 -34.903  0.00  0.00     0.183 S 
ATOM     33  O2S SGN d   1     -40.413  24.003 -36.083  0.00  0.00    -0.582 OA
ATOM     34  O3S SGN d   1     -40.796  24.312 -33.627  0.00  0.00    -0.582 OA
ATOM     35  O1S SGN d   1     -41.064  26.240 -35.188  0.00  0.00    -0.582 OA
ENDBRANCH  30  32
ENDBRANCH   4  30
BRANCH   2  36
ATOM     36  O1  SGN d   1     -38.726  28.231 -34.486  0.00  0.00    -0.369 OA
ATOM     37  H   SGN d   1     -39.216  27.809 -35.208  0.00  0.00     0.212 HD
ENDBRANCH   2  36
TORSDOF 13
ENDMDL
MODEL 78
REMARK VINA RESULT:      -4.4      2.131      3.578
REMARK  13 active torsions:
REMARK  status: ('A' for Active; 'I' for Inactive)
REMARK    1  A    between atoms: C6_1  and  C5_27 
REMARK    2  A    between atoms: C6_1  and  O6_30 
REMARK    3  A    between atoms: O3_2  and  C3_3 
REMARK    4  A    between atoms: C6_4  and  C5_23 
REMARK    5  A    between atoms: C6_4  and  O62_11 
REMARK    6  A    between atoms: C1_6  and  O1_26 
REMARK    7  A    between atoms: C1_7  and  O1_9 
REMARK    8  A    between atoms: O1_9  and  C4_31 
REMARK    9  A    between atoms: C3_10  and  O3_29 
REMARK   10  A    between atoms: S_13  and  O2_22 
REMARK   11  A    between atoms: N_19  and  C2_25 
REMARK   12  A    between atoms: N_19  and  S1_28 
REMARK   13  A    between atoms: C2_20  and  O2_22 
ROOT
ATOM      1  C1  SGN d   1     -38.495  24.575 -34.481  0.00  0.00     0.000 C 
ATOM      2  C2  SGN d   1     -39.025  23.855 -33.252  0.00  0.00     0.000 C 
ATOM      3  C3  SGN d   1     -39.554  24.880 -32.262  0.00  0.00     0.000 C 
ATOM      4  C4  SGN d   1     -38.475  25.904 -31.951  0.00  0.00     0.000 C 
ATOM      5  C5  SGN d   1     -37.957  26.506 -33.248  0.00  0.00     0.000 C 
ATOM      6  O5  SGN d   1     -37.441  25.469 -34.097  0.00  0.00     0.000 OA
ENDROOT
BRANCH   6   7
ATOM      7  O1  SGN d   1     -39.035  26.941 -31.131  0.00  0.00     0.000 OA
BRANCH   7   8
ATOM      8  C1  IDS d   2     -40.033  27.955 -31.317  0.00  0.00     0.000 C 
ATOM      9  C2  IDS d   2     -39.346  29.308 -31.422  0.00  0.00     0.000 C 
ATOM     10  C3  IDS d   2     -40.306  30.309 -32.043  0.00  0.00     0.000 C 
ATOM     11  C4  IDS d   2     -40.576  29.885 -33.477  0.00  0.00     0.000 C 
ATOM     12  C5  IDS d   2     -40.286  28.400 -33.622  0.00  0.00     0.000 C 
ATOM     13  O5  IDS d   2     -40.821  27.699 -32.491  0.00  0.00     0.000 OA
BRANCH   9  14
ATOM     14  O2  IDS d   2     -38.926  29.739 -30.119  0.00  0.00     0.000 OA
BRANCH  14  15
ATOM     15  S   IDS d   2     -37.549  30.072 -29.886  0.00  0.00     0.000 S 
ATOM     16  O3S IDS d   2     -36.865  30.371 -31.221  0.00  0.00     0.000 OA
ATOM     17  O1S IDS d   2     -37.471  31.306 -28.984  0.00  0.00     0.000 OA
ATOM     18  O2S IDS d   2     -36.846  28.898 -29.204  0.00  0.00     0.000 OA
ENDBRANCH  14  15
ENDBRANCH   9  14
BRANCH  10  19
ATOM     19  O3  IDS d   2     -39.704  31.613 -32.038  0.00  0.00     0.000 OA
ATOM     20  H   IDS d   2     -39.671  31.950 -31.130  0.00  0.00     0.000 HD
ENDBRANCH  10  19
BRANCH  12  21
ATOM     21  C6  IDS d   2     -40.945  27.879 -34.901  0.00  0.00     0.000 C 
ATOM     22  O61 IDS d   2     -40.333  28.076 -35.972  0.00  0.00     0.000 OA
BRANCH  21  23
ATOM     23  O62 IDS d   2     -42.032  27.274 -34.775  0.00  0.00     0.000 OA
ENDBRANCH  21  23
ENDBRANCH  12  21
ENDBRANCH   7   8
ENDBRANCH   6   7
BRANCH   1  25
ATOM     25  O3  SGN d   1     -39.942  24.218 -31.049  0.00  0.00    -0.391 OA
ATOM     26  H   SGN d   1     -40.087  25.155 -30.850  0.00  0.00     0.210 HD
ENDBRANCH   1  25
BRANCH   5  27
ATOM     27  C6  SGN d   1     -36.856  27.508 -32.949  0.00  0.00     0.198 C 
BRANCH  27  28
ATOM     28  O6  SGN d   1     -36.300  27.239 -31.658  0.00  0.00    -0.398 OA
ATOM     29  H   SGN d   1     -36.837  26.568 -31.208  0.00  0.00     0.209 HD
ENDBRANCH  27  28
ENDBRANCH   5  27
BRANCH   4  30
ATOM     30  N   SGN d   1     -40.084  22.899 -33.609  0.00  0.00    -0.189 NA
ATOM     31  H   SGN d   1     -39.218  22.623 -34.073  0.00  0.00     0.143 HD
BRANCH  30  32
ATOM     32  S1  SGN d   1     -40.801  21.576 -32.982  0.00  0.00     0.183 S 
ATOM     33  O2S SGN d   1     -42.215  21.927 -32.512  0.00  0.00    -0.582 OA
ATOM     34  O3S SGN d   1     -40.865  20.482 -34.050  0.00  0.00    -0.582 OA
ATOM     35  O1S SGN d   1     -39.984  21.072 -31.791  0.00  0.00    -0.582 OA
ENDBRANCH  30  32
ENDBRANCH   4  30
BRANCH   2  36
ATOM     36  O1  SGN d   1     -39.558  25.320 -35.097  0.00  0.00    -0.369 OA
ATOM     37  H   SGN d   1     -39.733  26.034 -34.465  0.00  0.00     0.212 HD
ENDBRANCH   2  36
TORSDOF 13
ENDMDL
MODEL 79
REMARK VINA RESULT:      -4.4      4.330      7.293
REMARK  13 active torsions:
REMARK  status: ('A' for Active; 'I' for Inactive)
REMARK    1  A    between atoms: C6_1  and  C5_27 
REMARK    2  A    between atoms: C6_1  and  O6_30 
REMARK    3  A    between atoms: O3_2  and  C3_3 
REMARK    4  A    between atoms: C6_4  and  C5_23 
REMARK    5  A    between atoms: C6_4  and  O62_11 
REMARK    6  A    between atoms: C1_6  and  O1_26 
REMARK    7  A    between atoms: C1_7  and  O1_9 
REMARK    8  A    between atoms: O1_9  and  C4_31 
REMARK    9  A    between atoms: C3_10  and  O3_29 
REMARK   10  A    between atoms: S_13  and  O2_22 
REMARK   11  A    between atoms: N_19  and  C2_25 
REMARK   12  A    between atoms: N_19  and  S1_28 
REMARK   13  A    between atoms: C2_20  and  O2_22 
ROOT
ATOM      1  C1  SGN d   1     -39.949  28.124 -33.447  0.00  0.00     0.000 C 
ATOM      2  C2  SGN d   1     -40.717  28.574 -32.216  0.00  0.00     0.000 C 
ATOM      3  C3  SGN d   1     -39.756  28.696 -31.044  0.00  0.00     0.000 C 
ATOM      4  C4  SGN d   1     -39.007  27.388 -30.852  0.00  0.00     0.000 C 
ATOM      5  C5  SGN d   1     -38.342  26.986 -32.159  0.00  0.00     0.000 C 
ATOM      6  O5  SGN d   1     -39.331  26.854 -33.191  0.00  0.00     0.000 OA
ENDROOT
BRANCH   6   7
ATOM      7  O1  SGN d   1     -38.005  27.567 -29.839  0.00  0.00     0.000 OA
BRANCH   7   8
ATOM      8  C1  IDS d   2     -36.621  27.300 -29.574  0.00  0.00     0.000 C 
ATOM      9  C2  IDS d   2     -35.803  28.527 -29.945  0.00  0.00     0.000 C 
ATOM     10  C3  IDS d   2     -34.439  28.438 -29.282  0.00  0.00     0.000 C 
ATOM     11  C4  IDS d   2     -34.632  28.526 -27.777  0.00  0.00     0.000 C 
ATOM     12  C5  IDS d   2     -36.056  28.116 -27.432  0.00  0.00     0.000 C 
ATOM     13  O5  IDS d   2     -36.413  26.955 -28.194  0.00  0.00     0.000 OA
BRANCH   9  14
ATOM     14  O2  IDS d   2     -35.676  28.610 -31.372  0.00  0.00     0.000 OA
BRANCH  14  15
ATOM     15  S   IDS d   2     -35.974  29.842 -32.046  0.00  0.00     0.000 S 
ATOM     16  O3S IDS d   2     -34.764  30.774 -31.957  0.00  0.00     0.000 OA
ATOM     17  O1S IDS d   2     -36.290  29.554 -33.515  0.00  0.00     0.000 OA
ATOM     18  O2S IDS d   2     -37.182  30.508 -31.386  0.00  0.00     0.000 OA
ENDBRANCH  14  15
ENDBRANCH   9  14
BRANCH  10  19
ATOM     19  O3  IDS d   2     -33.623  29.535 -29.721  0.00  0.00     0.000 OA
ATOM     20  H   IDS d   2     -32.789  29.535 -29.227  0.00  0.00     0.000 HD
ENDBRANCH  10  19
BRANCH  12  21
ATOM     21  C6  IDS d   2     -36.139  27.789 -25.939  0.00  0.00     0.000 C 
ATOM     22  O61 IDS d   2     -37.242  27.395 -25.508  0.00  0.00     0.000 OA
BRANCH  21  23
ATOM     23  O62 IDS d   2     -35.090  27.917 -25.270  0.00  0.00     0.000 OA
ENDBRANCH  21  23
ENDBRANCH  12  21
ENDBRANCH   7   8
ENDBRANCH   6   7
BRANCH   1  25
ATOM     25  O3  SGN d   1     -40.494  29.000 -29.851  0.00  0.00    -0.391 OA
ATOM     26  H   SGN d   1     -40.492  29.966 -29.931  0.00  0.00     0.210 HD
ENDBRANCH   1  25
BRANCH   5  27
ATOM     27  C6  SGN d   1     -37.617  25.663 -31.983  0.00  0.00     0.198 C 
BRANCH  27  28
ATOM     28  O6  SGN d   1     -36.331  25.734 -32.606  0.00  0.00    -0.398 OA
ATOM     29  H   SGN d   1     -35.912  26.582 -32.387  0.00  0.00     0.209 HD
ENDBRANCH  27  28
ENDBRANCH   5  27
BRANCH   4  30
ATOM     30  N   SGN d   1     -41.398  29.856 -32.451  0.00  0.00    -0.189 NA
ATOM     31  H   SGN d   1     -42.172  29.580 -31.847  0.00  0.00     0.143 HD
BRANCH  30  32
ATOM     32  S1  SGN d   1     -41.356  31.482 -32.562  0.00  0.00     0.183 S 
ATOM     33  O2S SGN d   1     -42.276  31.949 -33.693  0.00  0.00    -0.582 OA
ATOM     34  O3S SGN d   1     -41.816  32.090 -31.235  0.00  0.00    -0.582 OA
ATOM     35  O1S SGN d   1     -39.925  31.934 -32.856  0.00  0.00    -0.582 OA
ENDBRANCH  30  32
ENDBRANCH   4  30
BRANCH   2  36
ATOM     36  O1  SGN d   1     -38.940  29.095 -33.765  0.00  0.00    -0.369 OA
ATOM     37  H   SGN d   1     -39.534  28.882 -34.502  0.00  0.00     0.212 HD
ENDBRANCH   2  36
TORSDOF 13
ENDMDL
MODEL 80
REMARK VINA RESULT:      -4.4      1.612      2.161
REMARK  13 active torsions:
REMARK  status: ('A' for Active; 'I' for Inactive)
REMARK    1  A    between atoms: C6_1  and  C5_27 
REMARK    2  A    between atoms: C6_1  and  O6_30 
REMARK    3  A    between atoms: O3_2  and  C3_3 
REMARK    4  A    between atoms: C6_4  and  C5_23 
REMARK    5  A    between atoms: C6_4  and  O62_11 
REMARK    6  A    between atoms: C1_6  and  O1_26 
REMARK    7  A    between atoms: C1_7  and  O1_9 
REMARK    8  A    between atoms: O1_9  and  C4_31 
REMARK    9  A    between atoms: C3_10  and  O3_29 
REMARK   10  A    between atoms: S_13  and  O2_22 
REMARK   11  A    between atoms: N_19  and  C2_25 
REMARK   12  A    between atoms: N_19  and  S1_28 
REMARK   13  A    between atoms: C2_20  and  O2_22 
ROOT
ATOM      1  C1  SGN d   1     -42.154  22.231 -31.815  0.00  0.00     0.000 C 
ATOM      2  C2  SGN d   1     -40.677  22.074 -31.496  0.00  0.00     0.000 C 
ATOM      3  C3  SGN d   1     -39.900  23.203 -32.154  0.00  0.00     0.000 C 
ATOM      4  C4  SGN d   1     -40.202  23.239 -33.644  0.00  0.00     0.000 C 
ATOM      5  C5  SGN d   1     -41.706  23.316 -33.855  0.00  0.00     0.000 C 
ATOM      6  O5  SGN d   1     -42.346  22.189 -33.237  0.00  0.00     0.000 OA
ENDROOT
BRANCH   6   7
ATOM      7  O1  SGN d   1     -39.576  24.395 -34.220  0.00  0.00     0.000 OA
BRANCH   7   8
ATOM      8  C1  IDS d   2     -39.559  25.742 -33.727  0.00  0.00     0.000 C 
ATOM      9  C2  IDS d   2     -38.174  26.329 -33.946  0.00  0.00     0.000 C 
ATOM     10  C3  IDS d   2     -38.250  27.843 -33.845  0.00  0.00     0.000 C 
ATOM     11  C4  IDS d   2     -39.090  28.357 -35.003  0.00  0.00     0.000 C 
ATOM     12  C5  IDS d   2     -39.990  27.237 -35.503  0.00  0.00     0.000 C 
ATOM     13  O5  IDS d   2     -40.555  26.547 -34.380  0.00  0.00     0.000 OA
BRANCH   9  14
ATOM     14  O2  IDS d   2     -37.263  25.795 -32.973  0.00  0.00     0.000 OA
BRANCH  14  15
ATOM     15  S   IDS d   2     -37.403  26.153 -31.590  0.00  0.00     0.000 S 
ATOM     16  O3S IDS d   2     -36.782  27.532 -31.357  0.00  0.00     0.000 OA
ATOM     17  O1S IDS d   2     -38.888  26.193 -31.222  0.00  0.00     0.000 OA
ATOM     18  O2S IDS d   2     -36.691  25.118 -30.718  0.00  0.00     0.000 OA
ENDBRANCH  14  15
ENDBRANCH   9  14
BRANCH  10  19
ATOM     19  O3  IDS d   2     -36.928  28.395 -33.936  0.00  0.00     0.000 OA
ATOM     20  H   IDS d   2     -36.296  27.791 -33.515  0.00  0.00     0.000 HD
ENDBRANCH  10  19
BRANCH  12  21
ATOM     21  C6  IDS d   2     -41.114  27.835 -36.351  0.00  0.00     0.000 C 
ATOM     22  O61 IDS d   2     -41.074  27.612 -37.579  0.00  0.00     0.000 OA
BRANCH  21  23
ATOM     23  O62 IDS d   2     -42.002  28.478 -35.748  0.00  0.00     0.000 OA
ENDBRANCH  21  23
ENDBRANCH  12  21
ENDBRANCH   7   8
ENDBRANCH   6   7
BRANCH   1  25
ATOM     25  O3  SGN d   1     -38.494  22.991 -31.961  0.00  0.00    -0.391 OA
ATOM     26  H   SGN d   1     -38.164  22.238 -31.447  0.00  0.00     0.210 HD
ENDBRANCH   1  25
BRANCH   5  27
ATOM     27  C6  SGN d   1     -42.018  23.321 -35.342  0.00  0.00     0.198 C 
BRANCH  27  28
ATOM     28  O6  SGN d   1     -41.029  22.561 -36.042  0.00  0.00    -0.398 OA
ATOM     29  H   SGN d   1     -40.145  22.883 -35.804  0.00  0.00     0.209 HD
ENDBRANCH  27  28
ENDBRANCH   5  27
BRANCH   4  30
ATOM     30  N   SGN d   1     -40.443  22.073 -30.045  0.00  0.00    -0.189 NA
ATOM     31  H   SGN d   1     -40.965  22.899 -29.755  0.00  0.00     0.143 HD
BRANCH  30  32
ATOM     32  S1  SGN d   1     -41.124  20.747 -29.383  0.00  0.00     0.183 S 
ATOM     33  O2S SGN d   1     -42.600  21.019 -29.081  0.00  0.00    -0.582 OA
ATOM     34  O3S SGN d   1     -41.001  19.576 -30.360  0.00  0.00    -0.582 OA
ATOM     35  O1S SGN d   1     -40.398  20.399 -28.083  0.00  0.00    -0.582 OA
ENDBRANCH  30  32
ENDBRANCH   4  30
BRANCH   2  36
ATOM     36  O1  SGN d   1     -42.625  23.488 -31.303  0.00  0.00    -0.369 OA
ATOM     37  H   SGN d   1     -42.504  23.505 -30.341  0.00  0.00     0.212 HD
ENDBRANCH   2  36
TORSDOF 13
ENDMDL
MODEL 81
REMARK VINA RESULT:      -4.4      4.784      6.397
REMARK  13 active torsions:
REMARK  status: ('A' for Active; 'I' for Inactive)
REMARK    1  A    between atoms: C6_1  and  C5_27 
REMARK    2  A    between atoms: C6_1  and  O6_30 
REMARK    3  A    between atoms: O3_2  and  C3_3 
REMARK    4  A    between atoms: C6_4  and  C5_23 
REMARK    5  A    between atoms: C6_4  and  O62_11 
REMARK    6  A    between atoms: C1_6  and  O1_26 
REMARK    7  A    between atoms: C1_7  and  O1_9 
REMARK    8  A    between atoms: O1_9  and  C4_31 
REMARK    9  A    between atoms: C3_10  and  O3_29 
REMARK   10  A    between atoms: S_13  and  O2_22 
REMARK   11  A    between atoms: N_19  and  C2_25 
REMARK   12  A    between atoms: N_19  and  S1_28 
REMARK   13  A    between atoms: C2_20  and  O2_22 
ROOT
ATOM      1  C1  SGN d   1     -37.517  27.185 -34.750  0.00  0.00     0.000 C 
ATOM      2  C2  SGN d   1     -38.906  27.793 -34.649  0.00  0.00     0.000 C 
ATOM      3  C3  SGN d   1     -38.838  29.059 -33.811  0.00  0.00     0.000 C 
ATOM      4  C4  SGN d   1     -38.207  28.754 -32.463  0.00  0.00     0.000 C 
ATOM      5  C5  SGN d   1     -36.862  28.078 -32.673  0.00  0.00     0.000 C 
ATOM      6  O5  SGN d   1     -37.032  26.873 -33.435  0.00  0.00     0.000 OA
ENDROOT
BRANCH   6   7
ATOM      7  O1  SGN d   1     -38.020  29.983 -31.744  0.00  0.00     0.000 OA
BRANCH   7   8
ATOM      8  C1  IDS d   2     -38.880  29.901 -30.599  0.00  0.00     0.000 C 
ATOM      9  C2  IDS d   2     -38.295  30.751 -29.482  0.00  0.00     0.000 C 
ATOM     10  C3  IDS d   2     -39.374  31.031 -28.449  0.00  0.00     0.000 C 
ATOM     11  C4  IDS d   2     -40.441  31.899 -29.096  0.00  0.00     0.000 C 
ATOM     12  C5  IDS d   2     -40.377  31.727 -30.605  0.00  0.00     0.000 C 
ATOM     13  O5  IDS d   2     -40.213  30.337 -30.918  0.00  0.00     0.000 OA
BRANCH   9  14
ATOM     14  O2  IDS d   2     -37.180  30.069 -28.890  0.00  0.00     0.000 OA
BRANCH  14  15
ATOM     15  S   IDS d   2     -35.888  30.692 -28.872  0.00  0.00     0.000 S 
ATOM     16  O3S IDS d   2     -35.906  31.873 -27.898  0.00  0.00     0.000 OA
ATOM     17  O1S IDS d   2     -34.838  29.675 -28.421  0.00  0.00     0.000 OA
ATOM     18  O2S IDS d   2     -35.541  31.193 -30.275  0.00  0.00     0.000 OA
ENDBRANCH  14  15
ENDBRANCH   9  14
BRANCH  10  19
ATOM     19  O3  IDS d   2     -38.798  31.734 -27.338  0.00  0.00     0.000 OA
ATOM     20  H   IDS d   2     -38.749  32.680 -27.544  0.00  0.00     0.000 HD
ENDBRANCH  10  19
BRANCH  12  21
ATOM     21  C6  IDS d   2     -41.680  32.237 -31.226  0.00  0.00     0.000 C 
ATOM     22  O61 IDS d   2     -42.322  33.085 -30.573  0.00  0.00     0.000 OA
BRANCH  21  23
ATOM     23  O62 IDS d   2     -41.988  31.785 -32.351  0.00  0.00     0.000 OA
ENDBRANCH  21  23
ENDBRANCH  12  21
ENDBRANCH   7   8
ENDBRANCH   6   7
BRANCH   1  25
ATOM     25  O3  SGN d   1     -40.165  29.569 -33.609  0.00  0.00    -0.391 OA
ATOM     26  H   SGN d   1     -39.864  30.363 -34.079  0.00  0.00     0.210 HD
ENDBRANCH   1  25
BRANCH   5  27
ATOM     27  C6  SGN d   1     -36.238  27.741 -31.330  0.00  0.00     0.198 C 
BRANCH  27  28
ATOM     28  O6  SGN d   1     -34.989  28.425 -31.195  0.00  0.00    -0.398 OA
ATOM     29  H   SGN d   1     -35.149  29.332 -30.889  0.00  0.00     0.209 HD
ENDBRANCH  27  28
ENDBRANCH   5  27
BRANCH   4  30
ATOM     30  N   SGN d   1     -39.454  28.092 -35.981  0.00  0.00    -0.189 NA
ATOM     31  H   SGN d   1     -38.842  27.285 -36.104  0.00  0.00     0.143 HD
BRANCH  30  32
ATOM     32  S1  SGN d   1     -40.940  27.731 -36.549  0.00  0.00     0.183 S 
ATOM     33  O2S SGN d   1     -41.040  28.126 -38.025  0.00  0.00    -0.582 OA
ATOM     34  O3S SGN d   1     -41.187  26.229 -36.396  0.00  0.00    -0.582 OA
ATOM     35  O1S SGN d   1     -41.991  28.500 -35.748  0.00  0.00    -0.582 OA
ENDBRANCH  30  32
ENDBRANCH   4  30
BRANCH   2  36
ATOM     36  O1  SGN d   1     -36.628  28.121 -35.381  0.00  0.00    -0.369 OA
ATOM     37  H   SGN d   1     -36.520  27.159 -35.443  0.00  0.00     0.212 HD
ENDBRANCH   2  36
TORSDOF 13
ENDMDL
MODEL 82
REMARK VINA RESULT:      -4.4      3.253      6.767
REMARK  13 active torsions:
REMARK  status: ('A' for Active; 'I' for Inactive)
REMARK    1  A    between atoms: C6_1  and  C5_27 
REMARK    2  A    between atoms: C6_1  and  O6_30 
REMARK    3  A    between atoms: O3_2  and  C3_3 
REMARK    4  A    between atoms: C6_4  and  C5_23 
REMARK    5  A    between atoms: C6_4  and  O62_11 
REMARK    6  A    between atoms: C1_6  and  O1_26 
REMARK    7  A    between atoms: C1_7  and  O1_9 
REMARK    8  A    between atoms: O1_9  and  C4_31 
REMARK    9  A    between atoms: C3_10  and  O3_29 
REMARK   10  A    between atoms: S_13  and  O2_22 
REMARK   11  A    between atoms: N_19  and  C2_25 
REMARK   12  A    between atoms: N_19  and  S1_28 
REMARK   13  A    between atoms: C2_20  and  O2_22 
ROOT
ATOM      1  C1  SGN d   1     -35.834  29.402 -32.118  0.00  0.00     0.000 C 
ATOM      2  C2  SGN d   1     -36.828  29.833 -31.052  0.00  0.00     0.000 C 
ATOM      3  C3  SGN d   1     -37.987  28.851 -31.023  0.00  0.00     0.000 C 
ATOM      4  C4  SGN d   1     -38.596  28.728 -32.410  0.00  0.00     0.000 C 
ATOM      5  C5  SGN d   1     -37.509  28.373 -33.412  0.00  0.00     0.000 C 
ATOM      6  O5  SGN d   1     -36.483  29.377 -33.398  0.00  0.00     0.000 OA
ENDROOT
BRANCH   6   7
ATOM      7  O1  SGN d   1     -39.591  27.693 -32.395  0.00  0.00     0.000 OA
BRANCH   7   8
ATOM      8  C1  IDS d   2     -39.540  26.303 -32.046  0.00  0.00     0.000 C 
ATOM      9  C2  IDS d   2     -40.720  25.977 -31.144  0.00  0.00     0.000 C 
ATOM     10  C3  IDS d   2     -40.934  24.473 -31.124  0.00  0.00     0.000 C 
ATOM     11  C4  IDS d   2     -41.360  24.032 -32.515  0.00  0.00     0.000 C 
ATOM     12  C5  IDS d   2     -40.900  25.067 -33.530  0.00  0.00     0.000 C 
ATOM     13  O5  IDS d   2     -39.559  25.472 -33.219  0.00  0.00     0.000 OA
BRANCH   9  14
ATOM     14  O2  IDS d   2     -40.471  26.479 -29.823  0.00  0.00     0.000 OA
BRANCH  14  15
ATOM     15  S   IDS d   2     -41.423  27.354 -29.199  0.00  0.00     0.000 S 
ATOM     16  O3S IDS d   2     -41.893  28.400 -30.213  0.00  0.00     0.000 OA
ATOM     17  O1S IDS d   2     -42.623  26.538 -28.715  0.00  0.00     0.000 OA
ATOM     18  O2S IDS d   2     -40.770  28.055 -28.007  0.00  0.00     0.000 OA
ENDBRANCH  14  15
ENDBRANCH   9  14
BRANCH  10  19
ATOM     19  O3  IDS d   2     -41.972  24.152 -30.185  0.00  0.00     0.000 OA
ATOM     20  H   IDS d   2     -42.439  23.354 -30.479  0.00  0.00     0.000 HD
ENDBRANCH  10  19
BRANCH  12  21
ATOM     21  C6  IDS d   2     -40.933  24.451 -34.930  0.00  0.00     0.000 C 
ATOM     22  O61 IDS d   2     -40.758  25.227 -35.892  0.00  0.00     0.000 OA
BRANCH  21  23
ATOM     23  O62 IDS d   2     -41.107  23.214 -35.003  0.00  0.00     0.000 OA
ENDBRANCH  21  23
ENDBRANCH  12  21
ENDBRANCH   7   8
ENDBRANCH   6   7
BRANCH   1  25
ATOM     25  O3  SGN d   1     -38.987  29.320 -30.106  0.00  0.00    -0.391 OA
ATOM     26  H   SGN d   1     -39.500  28.707 -30.657  0.00  0.00     0.210 HD
ENDBRANCH   1  25
BRANCH   5  27
ATOM     27  C6  SGN d   1     -38.104  28.279 -34.807  0.00  0.00     0.198 C 
BRANCH  27  28
ATOM     28  O6  SGN d   1     -38.302  26.905 -35.153  0.00  0.00    -0.398 OA
ATOM     29  H   SGN d   1     -37.452  26.437 -35.116  0.00  0.00     0.209 HD
ENDBRANCH  27  28
ENDBRANCH   5  27
BRANCH   4  30
ATOM     30  N   SGN d   1     -36.190  29.909 -29.729  0.00  0.00    -0.189 NA
ATOM     31  H   SGN d   1     -35.411  29.979 -30.383  0.00  0.00     0.143 HD
BRANCH  30  32
ATOM     32  S1  SGN d   1     -36.206  31.227 -28.769  0.00  0.00     0.183 S 
ATOM     33  O2S SGN d   1     -35.290  32.305 -29.354  0.00  0.00    -0.582 OA
ATOM     34  O3S SGN d   1     -37.637  31.760 -28.669  0.00  0.00    -0.582 OA
ATOM     35  O1S SGN d   1     -35.711  30.845 -27.374  0.00  0.00    -0.582 OA
ENDBRANCH  30  32
ENDBRANCH   4  30
BRANCH   2  36
ATOM     36  O1  SGN d   1     -35.334  28.092 -31.807  0.00  0.00    -0.369 OA
ATOM     37  H   SGN d   1     -35.832  28.040 -32.638  0.00  0.00     0.212 HD
ENDBRANCH   2  36
TORSDOF 13
ENDMDL
MODEL 83
REMARK VINA RESULT:      -4.4      2.248      3.424
REMARK  13 active torsions:
REMARK  status: ('A' for Active; 'I' for Inactive)
REMARK    1  A    between atoms: C6_1  and  C5_27 
REMARK    2  A    between atoms: C6_1  and  O6_30 
REMARK    3  A    between atoms: O3_2  and  C3_3 
REMARK    4  A    between atoms: C6_4  and  C5_23 
REMARK    5  A    between atoms: C6_4  and  O62_11 
REMARK    6  A    between atoms: C1_6  and  O1_26 
REMARK    7  A    between atoms: C1_7  and  O1_9 
REMARK    8  A    between atoms: O1_9  and  C4_31 
REMARK    9  A    between atoms: C3_10  and  O3_29 
REMARK   10  A    between atoms: S_13  and  O2_22 
REMARK   11  A    between atoms: N_19  and  C2_25 
REMARK   12  A    between atoms: N_19  and  S1_28 
REMARK   13  A    between atoms: C2_20  and  O2_22 
ROOT
ATOM      1  C1  SGN d   1     -40.713  25.201 -33.690  0.00  0.00     0.000 C 
ATOM      2  C2  SGN d   1     -39.837  25.151 -32.449  0.00  0.00     0.000 C 
ATOM      3  C3  SGN d   1     -39.541  26.569 -31.988  0.00  0.00     0.000 C 
ATOM      4  C4  SGN d   1     -38.935  27.368 -33.130  0.00  0.00     0.000 C 
ATOM      5  C5  SGN d   1     -39.846  27.289 -34.345  0.00  0.00     0.000 C 
ATOM      6  O5  SGN d   1     -40.032  25.918 -34.730  0.00  0.00     0.000 OA
ENDROOT
BRANCH   6   7
ATOM      7  O1  SGN d   1     -38.796  28.737 -32.722  0.00  0.00     0.000 OA
BRANCH   7   8
ATOM      8  C1  IDS d   2     -39.652  29.291 -31.712  0.00  0.00     0.000 C 
ATOM      9  C2  IDS d   2     -38.820  30.167 -30.788  0.00  0.00     0.000 C 
ATOM     10  C3  IDS d   2     -39.742  31.087 -30.007  0.00  0.00     0.000 C 
ATOM     11  C4  IDS d   2     -40.399  32.048 -30.985  0.00  0.00     0.000 C 
ATOM     12  C5  IDS d   2     -40.369  31.440 -32.378  0.00  0.00     0.000 C 
ATOM     13  O5  IDS d   2     -40.721  30.052 -32.298  0.00  0.00     0.000 OA
BRANCH   9  14
ATOM     14  O2  IDS d   2     -38.049  29.340 -29.904  0.00  0.00     0.000 OA
BRANCH  14  15
ATOM     15  S   IDS d   2     -36.615  29.409 -29.928  0.00  0.00     0.000 S 
ATOM     16  O3S IDS d   2     -36.182  30.769 -30.480  0.00  0.00     0.000 OA
ATOM     17  O1S IDS d   2     -36.073  29.238 -28.508  0.00  0.00     0.000 OA
ATOM     18  O2S IDS d   2     -36.063  28.297 -30.821  0.00  0.00     0.000 OA
ENDBRANCH  14  15
ENDBRANCH   9  14
BRANCH  10  19
ATOM     19  O3  IDS d   2     -38.973  31.834 -29.051  0.00  0.00     0.000 OA
ATOM     20  H   IDS d   2     -38.399  31.230 -28.556  0.00  0.00     0.000 HD
ENDBRANCH  10  19
BRANCH  12  21
ATOM     21  C6  IDS d   2     -41.377  32.169 -33.269  0.00  0.00     0.000 C 
ATOM     22  O61 IDS d   2     -42.372  31.517 -33.646  0.00  0.00     0.000 OA
BRANCH  21  23
ATOM     23  O62 IDS d   2     -41.141  33.370 -33.530  0.00  0.00     0.000 OA
ENDBRANCH  21  23
ENDBRANCH  12  21
ENDBRANCH   7   8
ENDBRANCH   6   7
BRANCH   1  25
ATOM     25  O3  SGN d   1     -38.615  26.531 -30.892  0.00  0.00    -0.391 OA
ATOM     26  H   SGN d   1     -38.701  25.788 -30.275  0.00  0.00     0.210 HD
ENDBRANCH   1  25
BRANCH   5  27
ATOM     27  C6  SGN d   1     -39.232  28.059 -35.501  0.00  0.00     0.198 C 
BRANCH  27  28
ATOM     28  O6  SGN d   1     -37.813  27.878 -35.499  0.00  0.00    -0.398 OA
ATOM     29  H   SGN d   1     -37.600  26.994 -35.838  0.00  0.00     0.209 HD
ENDBRANCH  27  28
ENDBRANCH   5  27
BRANCH   4  30
ATOM     30  N   SGN d   1     -40.485  24.389 -31.371  0.00  0.00    -0.189 NA
ATOM     31  H   SGN d   1     -41.427  24.628 -31.681  0.00  0.00     0.143 HD
BRANCH  30  32
ATOM     32  S1  SGN d   1     -40.249  22.786 -31.552  0.00  0.00     0.183 S 
ATOM     33  O2S SGN d   1     -38.886  22.533 -32.200  0.00  0.00    -0.582 OA
ATOM     34  O3S SGN d   1     -40.307  22.109 -30.181  0.00  0.00    -0.582 OA
ATOM     35  O1S SGN d   1     -41.348  22.210 -32.446  0.00  0.00    -0.582 OA
ENDBRANCH  30  32
ENDBRANCH   4  30
BRANCH   2  36
ATOM     36  O1  SGN d   1     -41.949  25.863 -33.379  0.00  0.00    -0.369 OA
ATOM     37  H   SGN d   1     -41.789  26.754 -33.031  0.00  0.00     0.212 HD
ENDBRANCH   2  36
TORSDOF 13
ENDMDL
MODEL 84
REMARK VINA RESULT:      -4.4      4.254      8.349
REMARK  13 active torsions:
REMARK  status: ('A' for Active; 'I' for Inactive)
REMARK    1  A    between atoms: C6_1  and  C5_27 
REMARK    2  A    between atoms: C6_1  and  O6_30 
REMARK    3  A    between atoms: O3_2  and  C3_3 
REMARK    4  A    between atoms: C6_4  and  C5_23 
REMARK    5  A    between atoms: C6_4  and  O62_11 
REMARK    6  A    between atoms: C1_6  and  O1_26 
REMARK    7  A    between atoms: C1_7  and  O1_9 
REMARK    8  A    between atoms: O1_9  and  C4_31 
REMARK    9  A    between atoms: C3_10  and  O3_29 
REMARK   10  A    between atoms: S_13  and  O2_22 
REMARK   11  A    between atoms: N_19  and  C2_25 
REMARK   12  A    between atoms: N_19  and  S1_28 
REMARK   13  A    between atoms: C2_20  and  O2_22 
ROOT
ATOM      1  C1  SGN d   1     -35.475  30.725 -28.494  0.00  0.00     0.000 C 
ATOM      2  C2  SGN d   1     -34.562  30.095 -29.533  0.00  0.00     0.000 C 
ATOM      3  C3  SGN d   1     -35.373  29.147 -30.402  0.00  0.00     0.000 C 
ATOM      4  C4  SGN d   1     -36.092  28.133 -29.528  0.00  0.00     0.000 C 
ATOM      5  C5  SGN d   1     -36.912  28.861 -28.475  0.00  0.00     0.000 C 
ATOM      6  O5  SGN d   1     -36.057  29.697 -27.679  0.00  0.00     0.000 OA
ENDROOT
BRANCH   6   7
ATOM      7  O1  SGN d   1     -36.962  27.340 -30.350  0.00  0.00     0.000 OA
BRANCH   7   8
ATOM      8  C1  IDS d   2     -38.319  27.313 -30.813  0.00  0.00     0.000 C 
ATOM      9  C2  IDS d   2     -38.383  27.957 -32.190  0.00  0.00     0.000 C 
ATOM     10  C3  IDS d   2     -39.680  27.555 -32.871  0.00  0.00     0.000 C 
ATOM     11  C4  IDS d   2     -39.640  26.058 -33.131  0.00  0.00     0.000 C 
ATOM     12  C5  IDS d   2     -38.650  25.412 -32.174  0.00  0.00     0.000 C 
ATOM     13  O5  IDS d   2     -38.825  25.968 -30.864  0.00  0.00     0.000 OA
BRANCH   9  14
ATOM     14  O2  IDS d   2     -38.290  29.383 -32.061  0.00  0.00     0.000 OA
BRANCH  14  15
ATOM     15  S   IDS d   2     -37.514  30.138 -33.003  0.00  0.00     0.000 S 
ATOM     16  O3S IDS d   2     -36.340  30.801 -32.279  0.00  0.00     0.000 OA
ATOM     17  O1S IDS d   2     -36.981  29.201 -34.089  0.00  0.00     0.000 OA
ATOM     18  O2S IDS d   2     -38.391  31.214 -33.645  0.00  0.00     0.000 OA
ENDBRANCH  14  15
ENDBRANCH   9  14
BRANCH  10  19
ATOM     19  O3  IDS d   2     -39.797  28.252 -34.121  0.00  0.00     0.000 OA
ATOM     20  H   IDS d   2     -40.729  28.278 -34.390  0.00  0.00     0.000 HD
ENDBRANCH  10  19
BRANCH  12  21
ATOM     21  C6  IDS d   2     -38.907  23.904 -32.125  0.00  0.00     0.000 C 
ATOM     22  O61 IDS d   2     -39.843  23.515 -31.396  0.00  0.00     0.000 OA
BRANCH  21  23
ATOM     23  O62 IDS d   2     -38.178  23.179 -32.837  0.00  0.00     0.000 OA
ENDBRANCH  21  23
ENDBRANCH  12  21
ENDBRANCH   7   8
ENDBRANCH   6   7
BRANCH   1  25
ATOM     25  O3  SGN d   1     -34.495  28.457 -31.303  0.00  0.00    -0.391 OA
ATOM     26  H   SGN d   1     -35.374  28.295 -31.679  0.00  0.00     0.210 HD
ENDBRANCH   1  25
BRANCH   5  27
ATOM     27  C6  SGN d   1     -37.610  27.855 -27.576  0.00  0.00     0.198 C 
BRANCH  27  28
ATOM     28  O6  SGN d   1     -36.705  27.407 -26.563  0.00  0.00    -0.398 OA
ATOM     29  H   SGN d   1     -36.151  26.693 -26.917  0.00  0.00     0.209 HD
ENDBRANCH  27  28
ENDBRANCH   5  27
BRANCH   4  30
ATOM     30  N   SGN d   1     -33.915  31.121 -30.365  0.00  0.00    -0.189 NA
ATOM     31  H   SGN d   1     -34.617  31.790 -30.047  0.00  0.00     0.143 HD
BRANCH  30  32
ATOM     32  S1  SGN d   1     -32.450  31.577 -29.814  0.00  0.00     0.183 S 
ATOM     33  O2S SGN d   1     -31.560  30.345 -29.628  0.00  0.00    -0.582 OA
ATOM     34  O3S SGN d   1     -31.808  32.534 -30.820  0.00  0.00    -0.582 OA
ATOM     35  O1S SGN d   1     -32.612  32.290 -28.471  0.00  0.00    -0.582 OA
ENDBRANCH  30  32
ENDBRANCH   4  30
BRANCH   2  36
ATOM     36  O1  SGN d   1     -36.516  31.463 -29.153  0.00  0.00    -0.369 OA
ATOM     37  H   SGN d   1     -36.086  32.191 -29.628  0.00  0.00     0.212 HD
ENDBRANCH   2  36
TORSDOF 13
ENDMDL
MODEL 85
REMARK VINA RESULT:      -4.4      3.807      7.715
REMARK  13 active torsions:
REMARK  status: ('A' for Active; 'I' for Inactive)
REMARK    1  A    between atoms: C6_1  and  C5_27 
REMARK    2  A    between atoms: C6_1  and  O6_30 
REMARK    3  A    between atoms: O3_2  and  C3_3 
REMARK    4  A    between atoms: C6_4  and  C5_23 
REMARK    5  A    between atoms: C6_4  and  O62_11 
REMARK    6  A    between atoms: C1_6  and  O1_26 
REMARK    7  A    between atoms: C1_7  and  O1_9 
REMARK    8  A    between atoms: O1_9  and  C4_31 
REMARK    9  A    between atoms: C3_10  and  O3_29 
REMARK   10  A    between atoms: S_13  and  O2_22 
REMARK   11  A    between atoms: N_19  and  C2_25 
REMARK   12  A    between atoms: N_19  and  S1_28 
REMARK   13  A    between atoms: C2_20  and  O2_22 
ROOT
ATOM      1  C1  SGN d   1     -34.846  29.426 -30.138  0.00  0.00     0.000 C 
ATOM      2  C2  SGN d   1     -36.011  30.378 -29.921  0.00  0.00     0.000 C 
ATOM      3  C3  SGN d   1     -37.313  29.646 -30.202  0.00  0.00     0.000 C 
ATOM      4  C4  SGN d   1     -37.274  29.037 -31.594  0.00  0.00     0.000 C 
ATOM      5  C5  SGN d   1     -36.034  28.169 -31.734  0.00  0.00     0.000 C 
ATOM      6  O5  SGN d   1     -34.856  28.955 -31.493  0.00  0.00     0.000 OA
ENDROOT
BRANCH   6   7
ATOM      7  O1  SGN d   1     -38.447  28.232 -31.786  0.00  0.00     0.000 OA
BRANCH   7   8
ATOM      8  C1  IDS d   2     -39.047  27.328 -30.848  0.00  0.00     0.000 C 
ATOM      9  C2  IDS d   2     -40.560  27.425 -30.967  0.00  0.00     0.000 C 
ATOM     10  C3  IDS d   2     -41.192  26.202 -30.327  0.00  0.00     0.000 C 
ATOM     11  C4  IDS d   2     -40.804  24.980 -31.143  0.00  0.00     0.000 C 
ATOM     12  C5  IDS d   2     -39.536  25.284 -31.926  0.00  0.00     0.000 C 
ATOM     13  O5  IDS d   2     -38.611  25.977 -31.077  0.00  0.00     0.000 OA
BRANCH   9  14
ATOM     14  O2  IDS d   2     -41.017  28.631 -30.337  0.00  0.00     0.000 OA
BRANCH  14  15
ATOM     15  S   IDS d   2     -41.742  29.606 -31.100  0.00  0.00     0.000 S 
ATOM     16  O3S IDS d   2     -42.623  28.894 -32.129  0.00  0.00     0.000 OA
ATOM     17  O1S IDS d   2     -42.622  30.435 -30.162  0.00  0.00     0.000 OA
ATOM     18  O2S IDS d   2     -40.758  30.528 -31.821  0.00  0.00     0.000 OA
ENDBRANCH  14  15
ENDBRANCH   9  14
BRANCH  10  19
ATOM     19  O3  IDS d   2     -42.621  26.344 -30.334  0.00  0.00     0.000 OA
ATOM     20  H   IDS d   2     -43.025  25.532 -30.676  0.00  0.00     0.000 HD
ENDBRANCH  10  19
BRANCH  12  21
ATOM     21  C6  IDS d   2     -38.908  23.972 -32.398  0.00  0.00     0.000 C 
ATOM     22  O61 IDS d   2     -39.093  22.967 -31.680  0.00  0.00     0.000 OA
BRANCH  21  23
ATOM     23  O62 IDS d   2     -38.280  23.999 -33.480  0.00  0.00     0.000 OA
ENDBRANCH  21  23
ENDBRANCH  12  21
ENDBRANCH   7   8
ENDBRANCH   6   7
BRANCH   1  25
ATOM     25  O3  SGN d   1     -38.408  30.571 -30.120  0.00  0.00    -0.391 OA
ATOM     26  H   SGN d   1     -38.365  31.180 -29.366  0.00  0.00     0.210 HD
ENDBRANCH   1  25
BRANCH   5  27
ATOM     27  C6  SGN d   1     -35.970  27.581 -33.133  0.00  0.00     0.198 C 
BRANCH  27  28
ATOM     28  O6  SGN d   1     -36.350  26.203 -33.093  0.00  0.00    -0.398 OA
ATOM     29  H   SGN d   1     -35.665  25.666 -33.522  0.00  0.00     0.209 HD
ENDBRANCH  27  28
ENDBRANCH   5  27
BRANCH   4  30
ATOM     30  N   SGN d   1     -36.013  30.914 -28.552  0.00  0.00    -0.189 NA
ATOM     31  H   SGN d   1     -35.041  30.664 -28.734  0.00  0.00     0.143 HD
BRANCH  30  32
ATOM     32  S1  SGN d   1     -36.095  32.492 -28.146  0.00  0.00     0.183 S 
ATOM     33  O2S SGN d   1     -37.537  32.986 -28.281  0.00  0.00    -0.582 OA
ATOM     34  O3S SGN d   1     -35.618  32.667 -26.704  0.00  0.00    -0.582 OA
ATOM     35  O1S SGN d   1     -35.194  33.303 -29.079  0.00  0.00    -0.582 OA
ENDBRANCH  30  32
ENDBRANCH   4  30
BRANCH   2  36
ATOM     36  O1  SGN d   1     -34.963  28.311 -29.240  0.00  0.00    -0.369 OA
ATOM     37  H   SGN d   1     -35.809  28.017 -28.868  0.00  0.00     0.212 HD
ENDBRANCH   2  36
TORSDOF 13
ENDMDL
MODEL 86
REMARK VINA RESULT:      -4.4      2.161      3.276
REMARK  13 active torsions:
REMARK  status: ('A' for Active; 'I' for Inactive)
REMARK    1  A    between atoms: C6_1  and  C5_27 
REMARK    2  A    between atoms: C6_1  and  O6_30 
REMARK    3  A    between atoms: O3_2  and  C3_3 
REMARK    4  A    between atoms: C6_4  and  C5_23 
REMARK    5  A    between atoms: C6_4  and  O62_11 
REMARK    6  A    between atoms: C1_6  and  O1_26 
REMARK    7  A    between atoms: C1_7  and  O1_9 
REMARK    8  A    between atoms: O1_9  and  C4_31 
REMARK    9  A    between atoms: C3_10  and  O3_29 
REMARK   10  A    between atoms: S_13  and  O2_22 
REMARK   11  A    between atoms: N_19  and  C2_25 
REMARK   12  A    between atoms: N_19  and  S1_28 
REMARK   13  A    between atoms: C2_20  and  O2_22 
ROOT
ATOM      1  C1  SGN d   1     -40.263  24.701 -34.275  0.00  0.00     0.000 C 
ATOM      2  C2  SGN d   1     -38.980  24.174 -33.654  0.00  0.00     0.000 C 
ATOM      3  C3  SGN d   1     -38.457  25.189 -32.651  0.00  0.00     0.000 C 
ATOM      4  C4  SGN d   1     -38.298  26.544 -33.321  0.00  0.00     0.000 C 
ATOM      5  C5  SGN d   1     -39.610  26.942 -33.978  0.00  0.00     0.000 C 
ATOM      6  O5  SGN d   1     -40.000  25.947 -34.937  0.00  0.00     0.000 OA
ENDROOT
BRANCH   6   7
ATOM      7  O1  SGN d   1     -37.942  27.518 -32.329  0.00  0.00     0.000 OA
BRANCH   7   8
ATOM      8  C1  IDS d   2     -38.430  27.530 -30.980  0.00  0.00     0.000 C 
ATOM      9  C2  IDS d   2     -37.828  28.720 -30.249  0.00  0.00     0.000 C 
ATOM     10  C3  IDS d   2     -38.644  29.004 -28.999  0.00  0.00     0.000 C 
ATOM     11  C4  IDS d   2     -40.031  29.456 -29.425  0.00  0.00     0.000 C 
ATOM     12  C5  IDS d   2     -40.309  28.953 -30.833  0.00  0.00     0.000 C 
ATOM     13  O5  IDS d   2     -39.866  27.593 -30.947  0.00  0.00     0.000 OA
BRANCH   9  14
ATOM     14  O2  IDS d   2     -36.460  28.443 -29.919  0.00  0.00     0.000 OA
BRANCH  14  15
ATOM     15  S   IDS d   2     -35.416  29.286 -30.427  0.00  0.00     0.000 S 
ATOM     16  O3S IDS d   2     -35.860  30.749 -30.347  0.00  0.00     0.000 OA
ATOM     17  O1S IDS d   2     -34.150  29.091 -29.590  0.00  0.00     0.000 OA
ATOM     18  O2S IDS d   2     -35.124  28.921 -31.883  0.00  0.00     0.000 OA
ENDBRANCH  14  15
ENDBRANCH   9  14
BRANCH  10  19
ATOM     19  O3  IDS d   2     -38.013  30.052 -28.246  0.00  0.00     0.000 OA
ATOM     20  H   IDS d   2     -38.667  30.734 -28.031  0.00  0.00     0.000 HD
ENDBRANCH  10  19
BRANCH  12  21
ATOM     21  C6  IDS d   2     -41.813  29.021 -31.105  0.00  0.00     0.000 C 
ATOM     22  O61 IDS d   2     -42.492  29.742 -30.345  0.00  0.00     0.000 OA
BRANCH  21  23
ATOM     23  O62 IDS d   2     -42.245  28.371 -32.084  0.00  0.00     0.000 OA
ENDBRANCH  21  23
ENDBRANCH  12  21
ENDBRANCH   7   8
ENDBRANCH   6   7
BRANCH   1  25
ATOM     25  O3  SGN d   1     -37.182  24.755 -32.153  0.00  0.00    -0.391 OA
ATOM     26  H   SGN d   1     -36.871  25.649 -32.364  0.00  0.00     0.210 HD
ENDBRANCH   1  25
BRANCH   5  27
ATOM     27  C6  SGN d   1     -39.451  28.281 -34.677  0.00  0.00     0.198 C 
BRANCH  27  28
ATOM     28  O6  SGN d   1     -40.542  29.138 -34.328  0.00  0.00    -0.398 OA
ATOM     29  H   SGN d   1     -40.212  30.039 -34.185  0.00  0.00     0.209 HD
ENDBRANCH  27  28
ENDBRANCH   5  27
BRANCH   4  30
ATOM     30  N   SGN d   1     -39.200  22.876 -32.998  0.00  0.00    -0.189 NA
ATOM     31  H   SGN d   1     -38.231  22.596 -32.846  0.00  0.00     0.143 HD
BRANCH  30  32
ATOM     32  S1  SGN d   1     -40.159  22.090 -31.938  0.00  0.00     0.183 S 
ATOM     33  O2S SGN d   1     -41.591  22.037 -32.476  0.00  0.00    -0.582 OA
ATOM     34  O3S SGN d   1     -39.627  20.670 -31.735  0.00  0.00    -0.582 OA
ATOM     35  O1S SGN d   1     -40.149  22.829 -30.600  0.00  0.00    -0.582 OA
ENDBRANCH  30  32
ENDBRANCH   4  30
BRANCH   2  36
ATOM     36  O1  SGN d   1     -41.247  24.900 -33.248  0.00  0.00    -0.369 OA
ATOM     37  H   SGN d   1     -41.240  25.363 -34.100  0.00  0.00     0.212 HD
ENDBRANCH   2  36
TORSDOF 13
ENDMDL
MODEL 87
REMARK VINA RESULT:      -4.4      3.701      6.651
REMARK  13 active torsions:
REMARK  status: ('A' for Active; 'I' for Inactive)
REMARK    1  A    between atoms: C6_1  and  C5_27 
REMARK    2  A    between atoms: C6_1  and  O6_30 
REMARK    3  A    between atoms: O3_2  and  C3_3 
REMARK    4  A    between atoms: C6_4  and  C5_23 
REMARK    5  A    between atoms: C6_4  and  O62_11 
REMARK    6  A    between atoms: C1_6  and  O1_26 
REMARK    7  A    between atoms: C1_7  and  O1_9 
REMARK    8  A    between atoms: O1_9  and  C4_31 
REMARK    9  A    between atoms: C3_10  and  O3_29 
REMARK   10  A    between atoms: S_13  and  O2_22 
REMARK   11  A    between atoms: N_19  and  C2_25 
REMARK   12  A    between atoms: N_19  and  S1_28 
REMARK   13  A    between atoms: C2_20  and  O2_22 
ROOT
ATOM      1  C1  SGN d   1     -35.284  28.947 -28.684  0.00  0.00     0.000 C 
ATOM      2  C2  SGN d   1     -36.662  29.073 -28.056  0.00  0.00     0.000 C 
ATOM      3  C3  SGN d   1     -37.546  27.943 -28.557  0.00  0.00     0.000 C 
ATOM      4  C4  SGN d   1     -37.567  27.938 -30.077  0.00  0.00     0.000 C 
ATOM      5  C5  SGN d   1     -36.142  27.890 -30.604  0.00  0.00     0.000 C 
ATOM      6  O5  SGN d   1     -35.400  29.017 -30.113  0.00  0.00     0.000 OA
ENDROOT
BRANCH   6   7
ATOM      7  O1  SGN d   1     -38.286  26.781 -30.531  0.00  0.00     0.000 OA
BRANCH   7   8
ATOM      8  C1  IDS d   2     -39.331  27.167 -31.435  0.00  0.00     0.000 C 
ATOM      9  C2  IDS d   2     -40.025  25.915 -31.949  0.00  0.00     0.000 C 
ATOM     10  C3  IDS d   2     -41.372  26.296 -32.538  0.00  0.00     0.000 C 
ATOM     11  C4  IDS d   2     -42.257  26.810 -31.414  0.00  0.00     0.000 C 
ATOM     12  C5  IDS d   2     -41.380  27.287 -30.267  0.00  0.00     0.000 C 
ATOM     13  O5  IDS d   2     -40.278  28.038 -30.794  0.00  0.00     0.000 OA
BRANCH   9  14
ATOM     14  O2  IDS d   2     -39.197  25.274 -32.931  0.00  0.00     0.000 OA
BRANCH  14  15
ATOM     15  S   IDS d   2     -38.818  23.900 -32.759  0.00  0.00     0.000 S 
ATOM     16  O3S IDS d   2     -38.890  23.534 -31.275  0.00  0.00     0.000 OA
ATOM     17  O1S IDS d   2     -39.772  23.006 -33.553  0.00  0.00     0.000 OA
ATOM     18  O2S IDS d   2     -37.389  23.696 -33.266  0.00  0.00     0.000 OA
ENDBRANCH  14  15
ENDBRANCH   9  14
BRANCH  10  19
ATOM     19  O3  IDS d   2     -41.980  25.136 -33.128  0.00  0.00     0.000 OA
ATOM     20  H   IDS d   2     -41.446  24.839 -33.882  0.00  0.00     0.000 HD
ENDBRANCH  10  19
BRANCH  12  21
ATOM     21  C6  IDS d   2     -42.206  28.179 -29.338  0.00  0.00     0.000 C 
ATOM     22  O61 IDS d   2     -42.625  29.254 -29.814  0.00  0.00     0.000 OA
BRANCH  21  23
ATOM     23  O62 IDS d   2     -42.420  27.752 -28.182  0.00  0.00     0.000 OA
ENDBRANCH  21  23
ENDBRANCH  12  21
ENDBRANCH   7   8
ENDBRANCH   6   7
BRANCH   1  25
ATOM     25  O3  SGN d   1     -38.882  28.127 -28.065  0.00  0.00    -0.391 OA
ATOM     26  H   SGN d   1     -39.136  27.878 -28.968  0.00  0.00     0.210 HD
ENDBRANCH   1  25
BRANCH   5  27
ATOM     27  C6  SGN d   1     -36.153  27.917 -32.123  0.00  0.00     0.198 C 
BRANCH  27  28
ATOM     28  O6  SGN d   1     -36.254  26.581 -32.626  0.00  0.00    -0.398 OA
ATOM     29  H   SGN d   1     -36.305  26.604 -33.595  0.00  0.00     0.209 HD
ENDBRANCH  27  28
ENDBRANCH   5  27
BRANCH   4  30
ATOM     30  N   SGN d   1     -36.583  29.045 -26.588  0.00  0.00    -0.189 NA
ATOM     31  H   SGN d   1     -37.427  29.604 -26.468  0.00  0.00     0.143 HD
BRANCH  30  32
ATOM     32  S1  SGN d   1     -36.303  28.195 -25.224  0.00  0.00     0.183 S 
ATOM     33  O2S SGN d   1     -37.319  27.057 -25.106  0.00  0.00    -0.582 OA
ATOM     34  O3S SGN d   1     -34.885  27.623 -25.269  0.00  0.00    -0.582 OA
ATOM     35  O1S SGN d   1     -36.438  29.120 -24.013  0.00  0.00    -0.582 OA
ENDBRANCH  30  32
ENDBRANCH   4  30
BRANCH   2  36
ATOM     36  O1  SGN d   1     -34.699  27.690 -28.310  0.00  0.00    -0.369 OA
ATOM     37  H   SGN d   1     -34.303  28.374 -28.871  0.00  0.00     0.212 HD
ENDBRANCH   2  36
TORSDOF 13
ENDMDL
MODEL 88
REMARK VINA RESULT:      -4.4      3.554      5.998
REMARK  13 active torsions:
REMARK  status: ('A' for Active; 'I' for Inactive)
REMARK    1  A    between atoms: C6_1  and  C5_27 
REMARK    2  A    between atoms: C6_1  and  O6_30 
REMARK    3  A    between atoms: O3_2  and  C3_3 
REMARK    4  A    between atoms: C6_4  and  C5_23 
REMARK    5  A    between atoms: C6_4  and  O62_11 
REMARK    6  A    between atoms: C1_6  and  O1_26 
REMARK    7  A    between atoms: C1_7  and  O1_9 
REMARK    8  A    between atoms: O1_9  and  C4_31 
REMARK    9  A    between atoms: C3_10  and  O3_29 
REMARK   10  A    between atoms: S_13  and  O2_22 
REMARK   11  A    between atoms: N_19  and  C2_25 
REMARK   12  A    between atoms: N_19  and  S1_28 
REMARK   13  A    between atoms: C2_20  and  O2_22 
ROOT
ATOM      1  C1  SGN d   1     -37.354  26.911 -34.238  0.00  0.00     0.000 C 
ATOM      2  C2  SGN d   1     -38.044  26.060 -33.184  0.00  0.00     0.000 C 
ATOM      3  C3  SGN d   1     -38.519  26.955 -32.051  0.00  0.00     0.000 C 
ATOM      4  C4  SGN d   1     -37.354  27.768 -31.511  0.00  0.00     0.000 C 
ATOM      5  C5  SGN d   1     -36.685  28.517 -32.652  0.00  0.00     0.000 C 
ATOM      6  O5  SGN d   1     -36.233  27.588 -33.649  0.00  0.00     0.000 OA
ENDROOT
BRANCH   6   7
ATOM      7  O1  SGN d   1     -37.848  28.707 -30.544  0.00  0.00     0.000 OA
BRANCH   7   8
ATOM      8  C1  IDS d   2     -37.424  28.131 -29.300  0.00  0.00     0.000 C 
ATOM      9  C2  IDS d   2     -36.973  29.246 -28.369  0.00  0.00     0.000 C 
ATOM     10  C3  IDS d   2     -36.943  28.724 -26.943  0.00  0.00     0.000 C 
ATOM     11  C4  IDS d   2     -38.367  28.401 -26.521  0.00  0.00     0.000 C 
ATOM     12  C5  IDS d   2     -39.215  28.170 -27.762  0.00  0.00     0.000 C 
ATOM     13  O5  IDS d   2     -38.480  27.366 -28.695  0.00  0.00     0.000 OA
BRANCH   9  14
ATOM     14  O2  IDS d   2     -35.679  29.718 -28.772  0.00  0.00     0.000 OA
BRANCH  14  15
ATOM     15  S   IDS d   2     -35.419  31.129 -28.830  0.00  0.00     0.000 S 
ATOM     16  O3S IDS d   2     -34.404  31.414 -29.939  0.00  0.00     0.000 OA
ATOM     17  O1S IDS d   2     -36.721  31.875 -29.125  0.00  0.00     0.000 OA
ATOM     18  O2S IDS d   2     -34.855  31.601 -27.489  0.00  0.00     0.000 OA
ENDBRANCH  14  15
ENDBRANCH   9  14
BRANCH  10  19
ATOM     19  O3  IDS d   2     -36.408  29.737 -26.076  0.00  0.00     0.000 OA
ATOM     20  H   IDS d   2     -37.058  30.449 -25.972  0.00  0.00     0.000 HD
ENDBRANCH  10  19
BRANCH  12  21
ATOM     21  C6  IDS d   2     -40.501  27.442 -27.365  0.00  0.00     0.000 C 
ATOM     22  O61 IDS d   2     -41.578  27.992 -27.673  0.00  0.00     0.000 OA
BRANCH  21  23
ATOM     23  O62 IDS d   2     -40.375  26.340 -26.786  0.00  0.00     0.000 OA
ENDBRANCH  21  23
ENDBRANCH  12  21
ENDBRANCH   7   8
ENDBRANCH   6   7
BRANCH   1  25
ATOM     25  O3  SGN d   1     -39.061  26.144 -30.998  0.00  0.00    -0.391 OA
ATOM     26  H   SGN d   1     -39.944  26.482 -31.211  0.00  0.00     0.210 HD
ENDBRANCH   1  25
BRANCH   5  27
ATOM     27  C6  SGN d   1     -35.500  29.308 -32.125  0.00  0.00     0.198 C 
BRANCH  27  28
ATOM     28  O6  SGN d   1     -34.752  28.500 -31.211  0.00  0.00    -0.398 OA
ATOM     29  H   SGN d   1     -35.289  28.323 -30.423  0.00  0.00     0.209 HD
ENDBRANCH  27  28
ENDBRANCH   5  27
BRANCH   4  30
ATOM     30  N   SGN d   1     -39.177  25.319 -33.758  0.00  0.00    -0.189 NA
ATOM     31  H   SGN d   1     -38.327  25.063 -34.259  0.00  0.00     0.143 HD
BRANCH  30  32
ATOM     32  S1  SGN d   1     -40.027  23.969 -33.418  0.00  0.00     0.183 S 
ATOM     33  O2S SGN d   1     -41.095  24.281 -32.367  0.00  0.00    -0.582 OA
ATOM     34  O3S SGN d   1     -40.691  23.456 -34.697  0.00  0.00    -0.582 OA
ATOM     35  O1S SGN d   1     -39.081  22.897 -32.875  0.00  0.00    -0.582 OA
ENDBRANCH  30  32
ENDBRANCH   4  30
BRANCH   2  36
ATOM     36  O1  SGN d   1     -38.281  27.878 -34.757  0.00  0.00    -0.369 OA
ATOM     37  H   SGN d   1     -38.859  27.319 -35.299  0.00  0.00     0.212 HD
ENDBRANCH   2  36
TORSDOF 13
ENDMDL
MODEL 89
REMARK VINA RESULT:      -4.4      2.657      4.111
REMARK  13 active torsions:
REMARK  status: ('A' for Active; 'I' for Inactive)
REMARK    1  A    between atoms: C6_1  and  C5_27 
REMARK    2  A    between atoms: C6_1  and  O6_30 
REMARK    3  A    between atoms: O3_2  and  C3_3 
REMARK    4  A    between atoms: C6_4  and  C5_23 
REMARK    5  A    between atoms: C6_4  and  O62_11 
REMARK    6  A    between atoms: C1_6  and  O1_26 
REMARK    7  A    between atoms: C1_7  and  O1_9 
REMARK    8  A    between atoms: O1_9  and  C4_31 
REMARK    9  A    between atoms: C3_10  and  O3_29 
REMARK   10  A    between atoms: S_13  and  O2_22 
REMARK   11  A    between atoms: N_19  and  C2_25 
REMARK   12  A    between atoms: N_19  and  S1_28 
REMARK   13  A    between atoms: C2_20  and  O2_22 
ROOT
ATOM      1  C1  SGN d   1     -38.518  24.905 -34.462  0.00  0.00     0.000 C 
ATOM      2  C2  SGN d   1     -39.038  24.175 -33.235  0.00  0.00     0.000 C 
ATOM      3  C3  SGN d   1     -39.609  25.187 -32.255  0.00  0.00     0.000 C 
ATOM      4  C4  SGN d   1     -38.564  26.246 -31.938  0.00  0.00     0.000 C 
ATOM      5  C5  SGN d   1     -38.052  26.857 -33.233  0.00  0.00     0.000 C 
ATOM      6  O5  SGN d   1     -37.495  25.833 -34.071  0.00  0.00     0.000 OA
ENDROOT
BRANCH   6   7
ATOM      7  O1  SGN d   1     -39.165  27.268 -31.129  0.00  0.00     0.000 OA
BRANCH   7   8
ATOM      8  C1  IDS d   2     -40.417  27.944 -31.309  0.00  0.00     0.000 C 
ATOM      9  C2  IDS d   2     -40.916  28.426 -29.955  0.00  0.00     0.000 C 
ATOM     10  C3  IDS d   2     -41.976  29.494 -30.164  0.00  0.00     0.000 C 
ATOM     11  C4  IDS d   2     -41.316  30.705 -30.801  0.00  0.00     0.000 C 
ATOM     12  C5  IDS d   2     -40.038  30.267 -31.501  0.00  0.00     0.000 C 
ATOM     13  O5  IDS d   2     -40.285  29.050 -32.218  0.00  0.00     0.000 OA
BRANCH   9  14
ATOM     14  O2  IDS d   2     -41.442  27.316 -29.212  0.00  0.00     0.000 OA
BRANCH  14  15
ATOM     15  S   IDS d   2     -40.930  27.025 -27.903  0.00  0.00     0.000 S 
ATOM     16  O3S IDS d   2     -41.664  27.881 -26.868  0.00  0.00     0.000 OA
ATOM     17  O1S IDS d   2     -41.149  25.544 -27.589  0.00  0.00     0.000 OA
ATOM     18  O2S IDS d   2     -39.434  27.339 -27.856  0.00  0.00     0.000 OA
ENDBRANCH  14  15
ENDBRANCH   9  14
BRANCH  10  19
ATOM     19  O3  IDS d   2     -42.531  29.868 -28.893  0.00  0.00     0.000 OA
ATOM     20  H   IDS d   2     -42.693  30.824 -28.880  0.00  0.00     0.000 HD
ENDBRANCH  10  19
BRANCH  12  21
ATOM     21  C6  IDS d   2     -39.603  31.357 -32.483  0.00  0.00     0.000 C 
ATOM     22  O61 IDS d   2     -40.227  32.437 -32.441  0.00  0.00     0.000 OA
BRANCH  21  23
ATOM     23  O62 IDS d   2     -38.638  31.092 -33.234  0.00  0.00     0.000 OA
ENDBRANCH  21  23
ENDBRANCH  12  21
ENDBRANCH   7   8
ENDBRANCH   6   7
BRANCH   1  25
ATOM     25  O3  SGN d   1     -39.988  24.518 -31.044  0.00  0.00    -0.391 OA
ATOM     26  H   SGN d   1     -39.166  24.437 -30.536  0.00  0.00     0.210 HD
ENDBRANCH   1  25
BRANCH   5  27
ATOM     27  C6  SGN d   1     -36.985  27.894 -32.926  0.00  0.00     0.198 C 
BRANCH  27  28
ATOM     28  O6  SGN d   1     -36.851  28.787 -34.036  0.00  0.00    -0.398 OA
ATOM     29  H   SGN d   1     -37.276  29.633 -33.823  0.00  0.00     0.209 HD
ENDBRANCH  27  28
ENDBRANCH   5  27
BRANCH   4  30
ATOM     30  N   SGN d   1     -40.062  23.185 -33.599  0.00  0.00    -0.189 NA
ATOM     31  H   SGN d   1     -39.184  22.935 -34.053  0.00  0.00     0.143 HD
BRANCH  30  32
ATOM     32  S1  SGN d   1     -40.745  21.842 -32.973  0.00  0.00     0.183 S 
ATOM     33  O2S SGN d   1     -40.840  20.759 -34.050  0.00  0.00    -0.582 OA
ATOM     34  O3S SGN d   1     -39.892  21.341 -31.806  0.00  0.00    -0.582 OA
ATOM     35  O1S SGN d   1     -42.149  22.176 -32.466  0.00  0.00    -0.582 OA
ENDBRANCH  30  32
ENDBRANCH   4  30
BRANCH   2  36
ATOM     36  O1  SGN d   1     -39.596  25.614 -35.092  0.00  0.00    -0.369 OA
ATOM     37  H   SGN d   1     -38.948  26.261 -34.772  0.00  0.00     0.212 HD
ENDBRANCH   2  36
TORSDOF 13
ENDMDL
MODEL 90
REMARK VINA RESULT:      -4.3      4.272      7.419
REMARK  13 active torsions:
REMARK  status: ('A' for Active; 'I' for Inactive)
REMARK    1  A    between atoms: C6_1  and  C5_27 
REMARK    2  A    between atoms: C6_1  and  O6_30 
REMARK    3  A    between atoms: O3_2  and  C3_3 
REMARK    4  A    between atoms: C6_4  and  C5_23 
REMARK    5  A    between atoms: C6_4  and  O62_11 
REMARK    6  A    between atoms: C1_6  and  O1_26 
REMARK    7  A    between atoms: C1_7  and  O1_9 
REMARK    8  A    between atoms: O1_9  and  C4_31 
REMARK    9  A    between atoms: C3_10  and  O3_29 
REMARK   10  A    between atoms: S_13  and  O2_22 
REMARK   11  A    between atoms: N_19  and  C2_25 
REMARK   12  A    between atoms: N_19  and  S1_28 
REMARK   13  A    between atoms: C2_20  and  O2_22 
ROOT
ATOM      1  C1  SGN d   1     -35.950  30.461 -27.048  0.00  0.00     0.000 C 
ATOM      2  C2  SGN d   1     -35.881  28.947 -27.162  0.00  0.00     0.000 C 
ATOM      3  C3  SGN d   1     -36.428  28.522 -28.515  0.00  0.00     0.000 C 
ATOM      4  C4  SGN d   1     -37.826  29.085 -28.708  0.00  0.00     0.000 C 
ATOM      5  C5  SGN d   1     -37.801  30.590 -28.496  0.00  0.00     0.000 C 
ATOM      6  O5  SGN d   1     -37.313  30.891 -27.179  0.00  0.00     0.000 OA
ENDROOT
BRANCH   6   7
ATOM      7  O1  SGN d   1     -38.267  28.796 -30.044  0.00  0.00     0.000 OA
BRANCH   7   8
ATOM      8  C1  IDS d   2     -37.794  29.156 -31.349  0.00  0.00     0.000 C 
ATOM      9  C2  IDS d   2     -37.990  27.976 -32.287  0.00  0.00     0.000 C 
ATOM     10  C3  IDS d   2     -37.914  28.461 -33.725  0.00  0.00     0.000 C 
ATOM     11  C4  IDS d   2     -39.098  29.379 -33.983  0.00  0.00     0.000 C 
ATOM     12  C5  IDS d   2     -39.601  29.929 -32.657  0.00  0.00     0.000 C 
ATOM     13  O5  IDS d   2     -38.481  30.316 -31.849  0.00  0.00     0.000 OA
BRANCH   9  14
ATOM     14  O2  IDS d   2     -36.989  26.981 -32.027  0.00  0.00     0.000 OA
BRANCH  14  15
ATOM     15  S   IDS d   2     -37.381  25.633 -31.729  0.00  0.00     0.000 S 
ATOM     16  O3S IDS d   2     -36.618  25.142 -30.497  0.00  0.00     0.000 OA
ATOM     17  O1S IDS d   2     -38.884  25.590 -31.449  0.00  0.00     0.000 OA
ATOM     18  O2S IDS d   2     -37.060  24.730 -32.921  0.00  0.00     0.000 OA
ENDBRANCH  14  15
ENDBRANCH   9  14
BRANCH  10  19
ATOM     19  O3  IDS d   2     -37.983  27.335 -34.613  0.00  0.00     0.000 OA
ATOM     20  H   IDS d   2     -37.557  27.560 -35.454  0.00  0.00     0.000 HD
ENDBRANCH  10  19
BRANCH  12  21
ATOM     21  C6  IDS d   2     -40.483  31.151 -32.921  0.00  0.00     0.000 C 
ATOM     22  O61 IDS d   2     -41.573  30.947 -33.495  0.00  0.00     0.000 OA
BRANCH  21  23
ATOM     23  O62 IDS d   2     -40.058  32.257 -32.519  0.00  0.00     0.000 OA
ENDBRANCH  21  23
ENDBRANCH  12  21
ENDBRANCH   7   8
ENDBRANCH   6   7
BRANCH   1  25
ATOM     25  O3  SGN d   1     -36.480  27.089 -28.580  0.00  0.00    -0.391 OA
ATOM     26  H   SGN d   1     -36.600  27.361 -29.503  0.00  0.00     0.210 HD
ENDBRANCH   1  25
BRANCH   5  27
ATOM     27  C6  SGN d   1     -39.201  31.157 -28.656  0.00  0.00     0.198 C 
BRANCH  27  28
ATOM     28  O6  SGN d   1     -39.214  32.112 -29.721  0.00  0.00    -0.398 OA
ATOM     29  H   SGN d   1     -39.161  31.648 -30.572  0.00  0.00     0.209 HD
ENDBRANCH  27  28
ENDBRANCH   5  27
BRANCH   4  30
ATOM     30  N   SGN d   1     -34.503  28.463 -26.993  0.00  0.00    -0.189 NA
ATOM     31  H   SGN d   1     -34.076  29.294 -27.401  0.00  0.00     0.143 HD
BRANCH  30  32
ATOM     32  S1  SGN d   1     -34.103  28.372 -25.415  0.00  0.00     0.183 S 
ATOM     33  O2S SGN d   1     -35.371  28.246 -24.566  0.00  0.00    -0.582 OA
ATOM     34  O3S SGN d   1     -33.206  27.154 -25.191  0.00  0.00    -0.582 OA
ATOM     35  O1S SGN d   1     -33.347  29.638 -25.009  0.00  0.00    -0.582 OA
ENDBRANCH  30  32
ENDBRANCH   4  30
BRANCH   2  36
ATOM     36  O1  SGN d   1     -35.156  31.057 -28.085  0.00  0.00    -0.369 OA
ATOM     37  H   SGN d   1     -35.969  31.094 -28.613  0.00  0.00     0.212 HD
ENDBRANCH   2  36
TORSDOF 13
ENDMDL
MODEL 91
REMARK VINA RESULT:      -4.3      2.999      5.063
REMARK  13 active torsions:
REMARK  status: ('A' for Active; 'I' for Inactive)
REMARK    1  A    between atoms: C6_1  and  C5_27 
REMARK    2  A    between atoms: C6_1  and  O6_30 
REMARK    3  A    between atoms: O3_2  and  C3_3 
REMARK    4  A    between atoms: C6_4  and  C5_23 
REMARK    5  A    between atoms: C6_4  and  O62_11 
REMARK    6  A    between atoms: C1_6  and  O1_26 
REMARK    7  A    between atoms: C1_7  and  O1_9 
REMARK    8  A    between atoms: O1_9  and  C4_31 
REMARK    9  A    between atoms: C3_10  and  O3_29 
REMARK   10  A    between atoms: S_13  and  O2_22 
REMARK   11  A    between atoms: N_19  and  C2_25 
REMARK   12  A    between atoms: N_19  and  S1_28 
REMARK   13  A    between atoms: C2_20  and  O2_22 
ROOT
ATOM      1  C1  SGN d   1     -37.743  25.870 -34.444  0.00  0.00     0.000 C 
ATOM      2  C2  SGN d   1     -38.708  24.766 -34.042  0.00  0.00     0.000 C 
ATOM      3  C3  SGN d   1     -39.558  25.246 -32.877  0.00  0.00     0.000 C 
ATOM      4  C4  SGN d   1     -38.664  25.717 -31.742  0.00  0.00     0.000 C 
ATOM      5  C5  SGN d   1     -37.687  26.758 -32.265  0.00  0.00     0.000 C 
ATOM      6  O5  SGN d   1     -36.901  26.201 -33.330  0.00  0.00     0.000 OA
ENDROOT
BRANCH   6   7
ATOM      7  O1  SGN d   1     -39.479  26.298 -30.713  0.00  0.00     0.000 OA
BRANCH   7   8
ATOM      8  C1  IDS d   2     -40.623  27.141 -30.904  0.00  0.00     0.000 C 
ATOM      9  C2  IDS d   2     -40.964  27.816 -29.585  0.00  0.00     0.000 C 
ATOM     10  C3  IDS d   2     -41.861  29.012 -29.851  0.00  0.00     0.000 C 
ATOM     11  C4  IDS d   2     -41.064  30.043 -30.633  0.00  0.00     0.000 C 
ATOM     12  C5  IDS d   2     -39.911  29.350 -31.342  0.00  0.00     0.000 C 
ATOM     13  O5  IDS d   2     -40.379  28.125 -31.923  0.00  0.00     0.000 OA
BRANCH   9  14
ATOM     14  O2  IDS d   2     -41.607  26.874 -28.713  0.00  0.00     0.000 OA
BRANCH  14  15
ATOM     15  S   IDS d   2     -41.083  26.645 -27.396  0.00  0.00     0.000 S 
ATOM     16  O3S IDS d   2     -39.596  27.008 -27.371  0.00  0.00     0.000 OA
ATOM     17  O1S IDS d   2     -41.838  27.515 -26.389  0.00  0.00     0.000 OA
ATOM     18  O2S IDS d   2     -41.255  25.171 -27.026  0.00  0.00     0.000 OA
ENDBRANCH  14  15
ENDBRANCH   9  14
BRANCH  10  19
ATOM     19  O3  IDS d   2     -42.279  29.583 -28.601  0.00  0.00     0.000 OA
ATOM     20  H   IDS d   2     -43.206  29.352 -28.434  0.00  0.00     0.000 HD
ENDBRANCH  10  19
BRANCH  12  21
ATOM     21  C6  IDS d   2     -39.374  30.264 -32.445  0.00  0.00     0.000 C 
ATOM     22  O61 IDS d   2     -38.912  29.708 -33.463  0.00  0.00     0.000 OA
BRANCH  21  23
ATOM     23  O62 IDS d   2     -39.462  31.497 -32.255  0.00  0.00     0.000 OA
ENDBRANCH  21  23
ENDBRANCH  12  21
ENDBRANCH   7   8
ENDBRANCH   6   7
BRANCH   1  25
ATOM     25  O3  SGN d   1     -40.384  24.167 -32.412  0.00  0.00    -0.391 OA
ATOM     26  H   SGN d   1     -40.881  23.749 -33.133  0.00  0.00     0.210 HD
ENDBRANCH   1  25
BRANCH   5  27
ATOM     27  C6  SGN d   1     -36.767  27.211 -31.144  0.00  0.00     0.198 C 
BRANCH  27  28
ATOM     28  O6  SGN d   1     -36.715  26.205 -30.129  0.00  0.00    -0.398 OA
ATOM     29  H   SGN d   1     -36.031  25.555 -30.353  0.00  0.00     0.209 HD
ENDBRANCH  27  28
ENDBRANCH   5  27
BRANCH   4  30
ATOM     30  N   SGN d   1     -39.565  24.370 -35.169  0.00  0.00    -0.189 NA
ATOM     31  H   SGN d   1     -39.156  23.456 -34.977  0.00  0.00     0.143 HD
BRANCH  30  32
ATOM     32  S1  SGN d   1     -41.006  24.170 -35.906  0.00  0.00     0.183 S 
ATOM     33  O2S SGN d   1     -42.137  24.413 -34.904  0.00  0.00    -0.582 OA
ATOM     34  O3S SGN d   1     -41.120  25.159 -37.067  0.00  0.00    -0.582 OA
ATOM     35  O1S SGN d   1     -41.106  22.743 -36.445  0.00  0.00    -0.582 OA
ENDBRANCH  30  32
ENDBRANCH   4  30
BRANCH   2  36
ATOM     36  O1  SGN d   1     -38.485  27.031 -34.849  0.00  0.00    -0.369 OA
ATOM     37  H   SGN d   1     -37.572  26.836 -35.112  0.00  0.00     0.212 HD
ENDBRANCH   2  36
TORSDOF 13
ENDMDL
MODEL 92
REMARK VINA RESULT:      -4.3      3.712      6.927
REMARK  13 active torsions:
REMARK  status: ('A' for Active; 'I' for Inactive)
REMARK    1  A    between atoms: C6_1  and  C5_27 
REMARK    2  A    between atoms: C6_1  and  O6_30 
REMARK    3  A    between atoms: O3_2  and  C3_3 
REMARK    4  A    between atoms: C6_4  and  C5_23 
REMARK    5  A    between atoms: C6_4  and  O62_11 
REMARK    6  A    between atoms: C1_6  and  O1_26 
REMARK    7  A    between atoms: C1_7  and  O1_9 
REMARK    8  A    between atoms: O1_9  and  C4_31 
REMARK    9  A    between atoms: C3_10  and  O3_29 
REMARK   10  A    between atoms: S_13  and  O2_22 
REMARK   11  A    between atoms: N_19  and  C2_25 
REMARK   12  A    between atoms: N_19  and  S1_28 
REMARK   13  A    between atoms: C2_20  and  O2_22 
ROOT
ATOM      1  C1  SGN d   1     -34.790  30.129 -30.085  0.00  0.00     0.000 C 
ATOM      2  C2  SGN d   1     -35.874  30.221 -29.024  0.00  0.00     0.000 C 
ATOM      3  C3  SGN d   1     -37.082  29.415 -29.473  0.00  0.00     0.000 C 
ATOM      4  C4  SGN d   1     -37.534  29.881 -30.848  0.00  0.00     0.000 C 
ATOM      5  C5  SGN d   1     -36.360  29.827 -31.813  0.00  0.00     0.000 C 
ATOM      6  O5  SGN d   1     -35.288  30.649 -31.327  0.00  0.00     0.000 OA
ENDROOT
BRANCH   6   7
ATOM      7  O1  SGN d   1     -38.580  29.017 -31.315  0.00  0.00     0.000 OA
BRANCH   7   8
ATOM      8  C1  IDS d   2     -38.650  27.606 -31.565  0.00  0.00     0.000 C 
ATOM      9  C2  IDS d   2     -39.906  27.052 -30.910  0.00  0.00     0.000 C 
ATOM     10  C3  IDS d   2     -40.228  25.695 -31.513  0.00  0.00     0.000 C 
ATOM     11  C4  IDS d   2     -40.594  25.896 -32.975  0.00  0.00     0.000 C 
ATOM     12  C5  IDS d   2     -39.997  27.207 -33.463  0.00  0.00     0.000 C 
ATOM     13  O5  IDS d   2     -38.654  27.327 -32.975  0.00  0.00     0.000 OA
BRANCH   9  14
ATOM     14  O2  IDS d   2     -39.708  26.951 -29.492  0.00  0.00     0.000 OA
BRANCH  14  15
ATOM     15  S   IDS d   2     -40.800  27.205 -28.597  0.00  0.00     0.000 S 
ATOM     16  O3S IDS d   2     -41.977  27.786 -29.384  0.00  0.00     0.000 OA
ATOM     17  O1S IDS d   2     -41.228  25.896 -27.931  0.00  0.00     0.000 OA
ATOM     18  O2S IDS d   2     -40.362  28.203 -27.524  0.00  0.00     0.000 OA
ENDBRANCH  14  15
ENDBRANCH   9  14
BRANCH  10  19
ATOM     19  O3  IDS d   2     -41.345  25.118 -30.819  0.00  0.00     0.000 OA
ATOM     20  H   IDS d   2     -42.171  25.418 -31.228  0.00  0.00     0.000 HD
ENDBRANCH  10  19
BRANCH  12  21
ATOM     21  C6  IDS d   2     -39.985  27.217 -34.993  0.00  0.00     0.000 C 
ATOM     22  O61 IDS d   2     -39.298  28.101 -35.546  0.00  0.00     0.000 OA
BRANCH  21  23
ATOM     23  O62 IDS d   2     -40.642  26.324 -35.573  0.00  0.00     0.000 OA
ENDBRANCH  21  23
ENDBRANCH  12  21
ENDBRANCH   7   8
ENDBRANCH   6   7
BRANCH   1  25
ATOM     25  O3  SGN d   1     -38.154  29.598 -28.535  0.00  0.00    -0.391 OA
ATOM     26  H   SGN d   1     -38.530  28.998 -29.198  0.00  0.00     0.210 HD
ENDBRANCH   1  25
BRANCH   5  27
ATOM     27  C6  SGN d   1     -36.795  30.321 -33.182  0.00  0.00     0.198 C 
BRANCH  27  28
ATOM     28  O6  SGN d   1     -36.895  29.215 -34.082  0.00  0.00    -0.398 OA
ATOM     29  H   SGN d   1     -37.769  28.802 -33.992  0.00  0.00     0.209 HD
ENDBRANCH  27  28
ENDBRANCH   5  27
BRANCH   4  30
ATOM     30  N   SGN d   1     -35.390  29.732 -27.725  0.00  0.00    -0.189 NA
ATOM     31  H   SGN d   1     -36.040  30.304 -27.186  0.00  0.00     0.143 HD
BRANCH  30  32
ATOM     32  S1  SGN d   1     -34.898  28.473 -26.812  0.00  0.00     0.183 S 
ATOM     33  O2S SGN d   1     -36.038  28.020 -25.897  0.00  0.00    -0.582 OA
ATOM     34  O3S SGN d   1     -34.478  27.321 -27.727  0.00  0.00    -0.582 OA
ATOM     35  O1S SGN d   1     -33.704  28.901 -25.958  0.00  0.00    -0.582 OA
ENDBRANCH  30  32
ENDBRANCH   4  30
BRANCH   2  36
ATOM     36  O1  SGN d   1     -34.403  28.757 -30.260  0.00  0.00    -0.369 OA
ATOM     37  H   SGN d   1     -34.158  29.502 -30.830  0.00  0.00     0.212 HD
ENDBRANCH   2  36
TORSDOF 13
ENDMDL
MODEL 93
REMARK VINA RESULT:      -4.3      3.271      5.869
REMARK  13 active torsions:
REMARK  status: ('A' for Active; 'I' for Inactive)
REMARK    1  A    between atoms: C6_1  and  C5_27 
REMARK    2  A    between atoms: C6_1  and  O6_30 
REMARK    3  A    between atoms: O3_2  and  C3_3 
REMARK    4  A    between atoms: C6_4  and  C5_23 
REMARK    5  A    between atoms: C6_4  and  O62_11 
REMARK    6  A    between atoms: C1_6  and  O1_26 
REMARK    7  A    between atoms: C1_7  and  O1_9 
REMARK    8  A    between atoms: O1_9  and  C4_31 
REMARK    9  A    between atoms: C3_10  and  O3_29 
REMARK   10  A    between atoms: S_13  and  O2_22 
REMARK   11  A    between atoms: N_19  and  C2_25 
REMARK   12  A    between atoms: N_19  and  S1_28 
REMARK   13  A    between atoms: C2_20  and  O2_22 
ROOT
ATOM      1  C1  SGN d   1     -40.106  26.898 -33.466  0.00  0.00     0.000 C 
ATOM      2  C2  SGN d   1     -39.200  25.837 -32.864  0.00  0.00     0.000 C 
ATOM      3  C3  SGN d   1     -38.444  26.433 -31.688  0.00  0.00     0.000 C 
ATOM      4  C4  SGN d   1     -37.705  27.686 -32.130  0.00  0.00     0.000 C 
ATOM      5  C5  SGN d   1     -38.682  28.646 -32.789  0.00  0.00     0.000 C 
ATOM      6  O5  SGN d   1     -39.314  28.009 -33.911  0.00  0.00     0.000 OA
ENDROOT
BRANCH   6   7
ATOM      7  O1  SGN d   1     -37.117  28.313 -30.981  0.00  0.00     0.000 OA
BRANCH   7   8
ATOM      8  C1  IDS d   2     -37.186  29.506 -30.188  0.00  0.00     0.000 C 
ATOM      9  C2  IDS d   2     -38.004  29.221 -28.938  0.00  0.00     0.000 C 
ATOM     10  C3  IDS d   2     -37.729  30.298 -27.903  0.00  0.00     0.000 C 
ATOM     11  C4  IDS d   2     -36.278  30.182 -27.466  0.00  0.00     0.000 C 
ATOM     12  C5  IDS d   2     -35.487  29.465 -28.549  0.00  0.00     0.000 C 
ATOM     13  O5  IDS d   2     -35.873  29.972 -29.834  0.00  0.00     0.000 OA
BRANCH   9  14
ATOM     14  O2  IDS d   2     -39.399  29.174 -29.274  0.00  0.00     0.000 OA
BRANCH  14  15
ATOM     15  S   IDS d   2     -40.257  28.218 -28.633  0.00  0.00     0.000 S 
ATOM     16  O3S IDS d   2     -41.227  28.950 -27.702  0.00  0.00     0.000 OA
ATOM     17  O1S IDS d   2     -41.049  27.453 -29.695  0.00  0.00     0.000 OA
ATOM     18  O2S IDS d   2     -39.413  27.235 -27.821  0.00  0.00     0.000 OA
ENDBRANCH  14  15
ENDBRANCH   9  14
BRANCH  10  19
ATOM     19  O3  IDS d   2     -38.585  30.097 -26.767  0.00  0.00     0.000 OA
ATOM     20  H   IDS d   2     -38.073  30.216 -25.952  0.00  0.00     0.000 HD
ENDBRANCH  10  19
BRANCH  12  21
ATOM     21  C6  IDS d   2     -33.993  29.716 -28.332  0.00  0.00     0.000 C 
ATOM     22  O61 IDS d   2     -33.290  29.852 -29.354  0.00  0.00     0.000 OA
BRANCH  21  23
ATOM     23  O62 IDS d   2     -33.595  29.790 -27.148  0.00  0.00     0.000 OA
ENDBRANCH  21  23
ENDBRANCH  12  21
ENDBRANCH   7   8
ENDBRANCH   6   7
BRANCH   1  25
ATOM     25  O3  SGN d   1     -37.497  25.475 -31.193  0.00  0.00    -0.391 OA
ATOM     26  H   SGN d   1     -37.367  24.619 -31.632  0.00  0.00     0.210 HD
ENDBRANCH   1  25
BRANCH   5  27
ATOM     27  C6  SGN d   1     -37.946  29.887 -33.263  0.00  0.00     0.198 C 
BRANCH  27  28
ATOM     28  O6  SGN d   1     -36.629  29.530 -33.692  0.00  0.00    -0.398 OA
ATOM     29  H   SGN d   1     -36.590  28.574 -33.851  0.00  0.00     0.209 HD
ENDBRANCH  27  28
ENDBRANCH   5  27
BRANCH   4  30
ATOM     30  N   SGN d   1     -39.971  24.662 -32.430  0.00  0.00    -0.189 NA
ATOM     31  H   SGN d   1     -40.199  24.862 -33.404  0.00  0.00     0.143 HD
BRANCH  30  32
ATOM     32  S1  SGN d   1     -39.671  23.067 -32.265  0.00  0.00     0.183 S 
ATOM     33  O2S SGN d   1     -40.027  22.617 -30.846  0.00  0.00    -0.582 OA
ATOM     34  O3S SGN d   1     -40.507  22.289 -33.282  0.00  0.00    -0.582 OA
ATOM     35  O1S SGN d   1     -38.187  22.802 -32.521  0.00  0.00    -0.582 OA
ENDBRANCH  30  32
ENDBRANCH   4  30
BRANCH   2  36
ATOM     36  O1  SGN d   1     -41.047  27.343 -32.477  0.00  0.00    -0.369 OA
ATOM     37  H   SGN d   1     -41.193  26.926 -31.614  0.00  0.00     0.212 HD
ENDBRANCH   2  36
TORSDOF 13
ENDMDL
MODEL 94
REMARK VINA RESULT:      -4.3      2.565      4.242
REMARK  13 active torsions:
REMARK  status: ('A' for Active; 'I' for Inactive)
REMARK    1  A    between atoms: C6_1  and  C5_27 
REMARK    2  A    between atoms: C6_1  and  O6_30 
REMARK    3  A    between atoms: O3_2  and  C3_3 
REMARK    4  A    between atoms: C6_4  and  C5_23 
REMARK    5  A    between atoms: C6_4  and  O62_11 
REMARK    6  A    between atoms: C1_6  and  O1_26 
REMARK    7  A    between atoms: C1_7  and  O1_9 
REMARK    8  A    between atoms: O1_9  and  C4_31 
REMARK    9  A    between atoms: C3_10  and  O3_29 
REMARK   10  A    between atoms: S_13  and  O2_22 
REMARK   11  A    between atoms: N_19  and  C2_25 
REMARK   12  A    between atoms: N_19  and  S1_28 
REMARK   13  A    between atoms: C2_20  and  O2_22 
ROOT
ATOM      1  C1  SGN d   1     -37.890  24.151 -33.490  0.00  0.00     0.000 C 
ATOM      2  C2  SGN d   1     -39.171  23.696 -32.811  0.00  0.00     0.000 C 
ATOM      3  C3  SGN d   1     -39.903  24.909 -32.261  0.00  0.00     0.000 C 
ATOM      4  C4  SGN d   1     -38.979  25.702 -31.351  0.00  0.00     0.000 C 
ATOM      5  C5  SGN d   1     -37.697  26.038 -32.097  0.00  0.00     0.000 C 
ATOM      6  O5  SGN d   1     -37.057  24.831 -32.539  0.00  0.00     0.000 OA
ENDROOT
BRANCH   6   7
ATOM      7  O1  SGN d   1     -39.637  26.915 -30.957  0.00  0.00     0.000 OA
BRANCH   7   8
ATOM      8  C1  IDS d   2     -40.205  27.997 -31.708  0.00  0.00     0.000 C 
ATOM      9  C2  IDS d   2     -39.760  29.313 -31.089  0.00  0.00     0.000 C 
ATOM     10  C3  IDS d   2     -39.973  30.435 -32.092  0.00  0.00     0.000 C 
ATOM     11  C4  IDS d   2     -39.037  30.209 -33.268  0.00  0.00     0.000 C 
ATOM     12  C5  IDS d   2     -38.649  28.739 -33.322  0.00  0.00     0.000 C 
ATOM     13  O5  IDS d   2     -39.813  27.933 -33.089  0.00  0.00     0.000 OA
BRANCH   9  14
ATOM     14  O2  IDS d   2     -40.500  29.555 -29.883  0.00  0.00     0.000 OA
BRANCH  14  15
ATOM     15  S   IDS d   2     -39.803  29.757 -28.645  0.00  0.00     0.000 S 
ATOM     16  O3S IDS d   2     -38.453  29.039 -28.698  0.00  0.00     0.000 OA
ATOM     17  O1S IDS d   2     -39.576  31.255 -28.428  0.00  0.00     0.000 OA
ATOM     18  O2S IDS d   2     -40.634  29.196 -27.491  0.00  0.00     0.000 OA
ENDBRANCH  14  15
ENDBRANCH   9  14
BRANCH  10  19
ATOM     19  O3  IDS d   2     -39.663  31.693 -31.473  0.00  0.00     0.000 OA
ATOM     20  H   IDS d   2     -40.145  32.403 -31.925  0.00  0.00     0.000 HD
ENDBRANCH  10  19
BRANCH  12  21
ATOM     21  C6  IDS d   2     -38.078  28.419 -34.705  0.00  0.00     0.000 C 
ATOM     22  O61 IDS d   2     -36.839  28.508 -34.837  0.00  0.00     0.000 OA
BRANCH  21  23
ATOM     23  O62 IDS d   2     -38.890  28.069 -35.589  0.00  0.00     0.000 OA
ENDBRANCH  21  23
ENDBRANCH  12  21
ENDBRANCH   7   8
ENDBRANCH   6   7
BRANCH   1  25
ATOM     25  O3  SGN d   1     -41.049  24.477 -31.512  0.00  0.00    -0.391 OA
ATOM     26  H   SGN d   1     -40.935  23.715 -30.923  0.00  0.00     0.210 HD
ENDBRANCH   1  25
BRANCH   5  27
ATOM     27  C6  SGN d   1     -36.755  26.803 -31.184  0.00  0.00     0.198 C 
BRANCH  27  28
ATOM     28  O6  SGN d   1     -37.133  26.596 -29.820  0.00  0.00    -0.398 OA
ATOM     29  H   SGN d   1     -37.379  27.446 -29.420  0.00  0.00     0.209 HD
ENDBRANCH  27  28
ENDBRANCH   5  27
BRANCH   4  30
ATOM     30  N   SGN d   1     -40.036  22.960 -33.745  0.00  0.00    -0.189 NA
ATOM     31  H   SGN d   1     -39.162  22.448 -33.630  0.00  0.00     0.143 HD
BRANCH  30  32
ATOM     32  S1  SGN d   1     -41.284  21.910 -33.701  0.00  0.00     0.183 S 
ATOM     33  O2S SGN d   1     -41.846  21.834 -32.279  0.00  0.00    -0.582 OA
ATOM     34  O3S SGN d   1     -42.373  22.381 -34.666  0.00  0.00    -0.582 OA
ATOM     35  O1S SGN d   1     -40.796  20.524 -34.126  0.00  0.00    -0.582 OA
ENDBRANCH  30  32
ENDBRANCH   4  30
BRANCH   2  36
ATOM     36  O1  SGN d   1     -38.209  25.040 -34.572  0.00  0.00    -0.369 OA
ATOM     37  H   SGN d   1     -37.334  24.686 -34.351  0.00  0.00     0.212 HD
ENDBRANCH   2  36
TORSDOF 13
ENDMDL
MODEL 95
REMARK VINA RESULT:      -4.3      3.859      6.892
REMARK  13 active torsions:
REMARK  status: ('A' for Active; 'I' for Inactive)
REMARK    1  A    between atoms: C6_1  and  C5_27 
REMARK    2  A    between atoms: C6_1  and  O6_30 
REMARK    3  A    between atoms: O3_2  and  C3_3 
REMARK    4  A    between atoms: C6_4  and  C5_23 
REMARK    5  A    between atoms: C6_4  and  O62_11 
REMARK    6  A    between atoms: C1_6  and  O1_26 
REMARK    7  A    between atoms: C1_7  and  O1_9 
REMARK    8  A    between atoms: O1_9  and  C4_31 
REMARK    9  A    between atoms: C3_10  and  O3_29 
REMARK   10  A    between atoms: S_13  and  O2_22 
REMARK   11  A    between atoms: N_19  and  C2_25 
REMARK   12  A    between atoms: N_19  and  S1_28 
REMARK   13  A    between atoms: C2_20  and  O2_22 
ROOT
ATOM      1  C1  SGN d   1     -36.416  27.624 -28.609  0.00  0.00     0.000 C 
ATOM      2  C2  SGN d   1     -36.358  29.042 -29.154  0.00  0.00     0.000 C 
ATOM      3  C3  SGN d   1     -37.415  29.206 -30.234  0.00  0.00     0.000 C 
ATOM      4  C4  SGN d   1     -37.237  28.136 -31.298  0.00  0.00     0.000 C 
ATOM      5  C5  SGN d   1     -37.229  26.764 -30.643  0.00  0.00     0.000 C 
ATOM      6  O5  SGN d   1     -36.174  26.691 -29.672  0.00  0.00     0.000 OA
ENDROOT
BRANCH   6   7
ATOM      7  O1  SGN d   1     -38.326  28.216 -32.230  0.00  0.00     0.000 OA
BRANCH   7   8
ATOM      8  C1  IDS d   2     -39.721  27.884 -32.244  0.00  0.00     0.000 C 
ATOM      9  C2  IDS d   2     -40.487  29.000 -32.938  0.00  0.00     0.000 C 
ATOM     10  C3  IDS d   2     -41.856  28.487 -33.350  0.00  0.00     0.000 C 
ATOM     11  C4  IDS d   2     -41.666  27.414 -34.409  0.00  0.00     0.000 C 
ATOM     12  C5  IDS d   2     -40.262  26.840 -34.293  0.00  0.00     0.000 C 
ATOM     13  O5  IDS d   2     -39.950  26.629 -32.909  0.00  0.00     0.000 OA
BRANCH   9  14
ATOM     14  O2  IDS d   2     -40.603  30.126 -32.056  0.00  0.00     0.000 OA
BRANCH  14  15
ATOM     15  S   IDS d   2     -40.153  31.420 -32.484  0.00  0.00     0.000 S 
ATOM     16  O3S IDS d   2     -41.203  32.044 -33.406  0.00  0.00     0.000 OA
ATOM     17  O1S IDS d   2     -39.948  32.317 -31.262  0.00  0.00     0.000 OA
ATOM     18  O2S IDS d   2     -38.831  31.278 -33.239  0.00  0.00     0.000 OA
ENDBRANCH  14  15
ENDBRANCH   9  14
BRANCH  10  19
ATOM     19  O3  IDS d   2     -42.625  29.568 -33.900  0.00  0.00     0.000 OA
ATOM     20  H   IDS d   2     -42.918  29.333 -34.794  0.00  0.00     0.000 HD
ENDBRANCH  10  19
BRANCH  12  21
ATOM     21  C6  IDS d   2     -40.199  25.505 -35.037  0.00  0.00     0.000 C 
ATOM     22  O61 IDS d   2     -39.333  24.689 -34.660  0.00  0.00     0.000 OA
BRANCH  21  23
ATOM     23  O62 IDS d   2     -41.037  25.322 -35.949  0.00  0.00     0.000 OA
ENDBRANCH  21  23
ENDBRANCH  12  21
ENDBRANCH   7   8
ENDBRANCH   6   7
BRANCH   1  25
ATOM     25  O3  SGN d   1     -37.283  30.501 -30.838  0.00  0.00    -0.391 OA
ATOM     26  H   SGN d   1     -36.892  31.219 -30.315  0.00  0.00     0.210 HD
ENDBRANCH   1  25
BRANCH   5  27
ATOM     27  C6  SGN d   1     -37.020  25.690 -31.696  0.00  0.00     0.198 C 
BRANCH  27  28
ATOM     28  O6  SGN d   1     -38.124  24.780 -31.680  0.00  0.00    -0.398 OA
ATOM     29  H   SGN d   1     -38.467  24.705 -30.776  0.00  0.00     0.209 HD
ENDBRANCH  27  28
ENDBRANCH   5  27
BRANCH   4  30
ATOM     30  N   SGN d   1     -36.563  30.032 -28.086  0.00  0.00    -0.189 NA
ATOM     31  H   SGN d   1     -36.746  29.216 -27.502  0.00  0.00     0.143 HD
BRANCH  30  32
ATOM     32  S1  SGN d   1     -35.227  30.793 -27.542  0.00  0.00     0.183 S 
ATOM     33  O2S SGN d   1     -34.285  31.087 -28.713  0.00  0.00    -0.582 OA
ATOM     34  O3S SGN d   1     -35.633  32.101 -26.861  0.00  0.00    -0.582 OA
ATOM     35  O1S SGN d   1     -34.510  29.898 -26.530  0.00  0.00    -0.582 OA
ENDBRANCH  30  32
ENDBRANCH   4  30
BRANCH   2  36
ATOM     36  O1  SGN d   1     -37.712  27.381 -28.041  0.00  0.00    -0.369 OA
ATOM     37  H   SGN d   1     -37.549  27.829 -27.196  0.00  0.00     0.212 HD
ENDBRANCH   2  36
TORSDOF 13
ENDMDL
MODEL 96
REMARK VINA RESULT:      -4.2      3.520      6.367
REMARK  13 active torsions:
REMARK  status: ('A' for Active; 'I' for Inactive)
REMARK    1  A    between atoms: C6_1  and  C5_27 
REMARK    2  A    between atoms: C6_1  and  O6_30 
REMARK    3  A    between atoms: O3_2  and  C3_3 
REMARK    4  A    between atoms: C6_4  and  C5_23 
REMARK    5  A    between atoms: C6_4  and  O62_11 
REMARK    6  A    between atoms: C1_6  and  O1_26 
REMARK    7  A    between atoms: C1_7  and  O1_9 
REMARK    8  A    between atoms: O1_9  and  C4_31 
REMARK    9  A    between atoms: C3_10  and  O3_29 
REMARK   10  A    between atoms: S_13  and  O2_22 
REMARK   11  A    between atoms: N_19  and  C2_25 
REMARK   12  A    between atoms: N_19  and  S1_28 
REMARK   13  A    between atoms: C2_20  and  O2_22 
ROOT
ATOM      1  C1  SGN d   1     -36.911  27.274 -33.951  0.00  0.00     0.000 C 
ATOM      2  C2  SGN d   1     -37.675  26.254 -33.123  0.00  0.00     0.000 C 
ATOM      3  C3  SGN d   1     -38.269  26.943 -31.905  0.00  0.00     0.000 C 
ATOM      4  C4  SGN d   1     -37.175  27.659 -31.131  0.00  0.00     0.000 C 
ATOM      5  C5  SGN d   1     -36.421  28.593 -32.065  0.00  0.00     0.000 C 
ATOM      6  O5  SGN d   1     -35.862  27.847 -33.157  0.00  0.00     0.000 OA
ENDROOT
BRANCH   6   7
ATOM      7  O1  SGN d   1     -37.772  28.420 -30.071  0.00  0.00     0.000 OA
BRANCH   7   8
ATOM      8  C1  IDS d   2     -38.758  29.462 -30.054  0.00  0.00     0.000 C 
ATOM      9  C2  IDS d   2     -39.796  29.141 -28.990  0.00  0.00     0.000 C 
ATOM     10  C3  IDS d   2     -40.576  30.402 -28.655  0.00  0.00     0.000 C 
ATOM     11  C4  IDS d   2     -39.626  31.392 -28.003  0.00  0.00     0.000 C 
ATOM     12  C5  IDS d   2     -38.198  31.051 -28.400  0.00  0.00     0.000 C 
ATOM     13  O5  IDS d   2     -38.156  30.743 -29.800  0.00  0.00     0.000 OA
BRANCH   9  14
ATOM     14  O2  IDS d   2     -40.670  28.106 -29.464  0.00  0.00     0.000 OA
BRANCH  14  15
ATOM     15  S   IDS d   2     -41.033  27.023 -28.595  0.00  0.00     0.000 S 
ATOM     16  O3S IDS d   2     -41.136  25.731 -29.409  0.00  0.00     0.000 OA
ATOM     17  O1S IDS d   2     -39.965  26.860 -27.512  0.00  0.00     0.000 OA
ATOM     18  O2S IDS d   2     -42.381  27.322 -27.939  0.00  0.00     0.000 OA
ENDBRANCH  14  15
ENDBRANCH   9  14
BRANCH  10  19
ATOM     19  O3  IDS d   2     -41.631  30.079 -27.737  0.00  0.00     0.000 OA
ATOM     20  H   IDS d   2     -41.966  29.190 -27.928  0.00  0.00     0.000 HD
ENDBRANCH  10  19
BRANCH  12  21
ATOM     21  C6  IDS d   2     -37.295  32.254 -28.117  0.00  0.00     0.000 C 
ATOM     22  O61 IDS d   2     -37.609  32.981 -27.152  0.00  0.00     0.000 OA
BRANCH  21  23
ATOM     23  O62 IDS d   2     -36.297  32.402 -28.857  0.00  0.00     0.000 OA
ENDBRANCH  21  23
ENDBRANCH  12  21
ENDBRANCH   7   8
ENDBRANCH   6   7
BRANCH   1  25
ATOM     25  O3  SGN d   1     -38.887  25.964 -31.056  0.00  0.00    -0.391 OA
ATOM     26  H   SGN d   1     -38.366  25.168 -30.868  0.00  0.00     0.210 HD
ENDBRANCH   1  25
BRANCH   5  27
ATOM     27  C6  SGN d   1     -35.304  29.290 -31.306  0.00  0.00     0.198 C 
BRANCH  27  28
ATOM     28  O6  SGN d   1     -35.671  30.648 -31.051  0.00  0.00    -0.398 OA
ATOM     29  H   SGN d   1     -36.362  30.919 -31.677  0.00  0.00     0.209 HD
ENDBRANCH  27  28
ENDBRANCH   5  27
BRANCH   4  30
ATOM     30  N   SGN d   1     -38.737  25.614 -33.915  0.00  0.00    -0.189 NA
ATOM     31  H   SGN d   1     -38.633  24.738 -33.402  0.00  0.00     0.143 HD
BRANCH  30  32
ATOM     32  S1  SGN d   1     -40.220  25.668 -34.592  0.00  0.00     0.183 S 
ATOM     33  O2S SGN d   1     -41.290  25.567 -33.503  0.00  0.00    -0.582 OA
ATOM     34  O3S SGN d   1     -40.377  26.984 -35.355  0.00  0.00    -0.582 OA
ATOM     35  O1S SGN d   1     -40.376  24.498 -35.564  0.00  0.00    -0.582 OA
ENDBRANCH  30  32
ENDBRANCH   4  30
BRANCH   2  36
ATOM     36  O1  SGN d   1     -37.806  28.309 -34.385  0.00  0.00    -0.369 OA
ATOM     37  H   SGN d   1     -37.414  27.854 -35.146  0.00  0.00     0.212 HD
ENDBRANCH   2  36
TORSDOF 13
ENDMDL
MODEL 97
REMARK VINA RESULT:      -4.0      3.086      5.580
REMARK  13 active torsions:
REMARK  status: ('A' for Active; 'I' for Inactive)
REMARK    1  A    between atoms: C6_1  and  C5_27 
REMARK    2  A    between atoms: C6_1  and  O6_30 
REMARK    3  A    between atoms: O3_2  and  C3_3 
REMARK    4  A    between atoms: C6_4  and  C5_23 
REMARK    5  A    between atoms: C6_4  and  O62_11 
REMARK    6  A    between atoms: C1_6  and  O1_26 
REMARK    7  A    between atoms: C1_7  and  O1_9 
REMARK    8  A    between atoms: O1_9  and  C4_31 
REMARK    9  A    between atoms: C3_10  and  O3_29 
REMARK   10  A    between atoms: S_13  and  O2_22 
REMARK   11  A    between atoms: N_19  and  C2_25 
REMARK   12  A    between atoms: N_19  and  S1_28 
REMARK   13  A    between atoms: C2_20  and  O2_22 
ROOT
ATOM      1  C1  SGN d   1     -36.796  26.354 -33.090  0.00  0.00     0.000 C 
ATOM      2  C2  SGN d   1     -37.469  26.012 -31.771  0.00  0.00     0.000 C 
ATOM      3  C3  SGN d   1     -38.512  27.071 -31.453  0.00  0.00     0.000 C 
ATOM      4  C4  SGN d   1     -37.872  28.449 -31.471  0.00  0.00     0.000 C 
ATOM      5  C5  SGN d   1     -37.159  28.661 -32.797  0.00  0.00     0.000 C 
ATOM      6  O5  SGN d   1     -36.167  27.640 -32.989  0.00  0.00     0.000 OA
ENDROOT
BRANCH   6   7
ATOM      7  O1  SGN d   1     -38.896  29.443 -31.312  0.00  0.00     0.000 OA
BRANCH   7   8
ATOM      8  C1  IDS d   2     -39.402  30.642 -31.915  0.00  0.00     0.000 C 
ATOM      9  C2  IDS d   2     -40.697  30.319 -32.644  0.00  0.00     0.000 C 
ATOM     10  C3  IDS d   2     -41.459  31.606 -32.904  0.00  0.00     0.000 C 
ATOM     11  C4  IDS d   2     -41.887  32.187 -31.566  0.00  0.00     0.000 C 
ATOM     12  C5  IDS d   2     -40.981  31.644 -30.473  0.00  0.00     0.000 C 
ATOM     13  O5  IDS d   2     -39.621  31.666 -30.930  0.00  0.00     0.000 OA
BRANCH   9  14
ATOM     14  O2  IDS d   2     -40.402  29.638 -33.873  0.00  0.00     0.000 OA
BRANCH  14  15
ATOM     15  S   IDS d   2     -41.106  28.433 -34.209  0.00  0.00     0.000 S 
ATOM     16  O3S IDS d   2     -41.669  27.800 -32.934  0.00  0.00     0.000 OA
ATOM     17  O1S IDS d   2     -42.254  28.764 -35.164  0.00  0.00     0.000 OA
ATOM     18  O2S IDS d   2     -40.148  27.452 -34.885  0.00  0.00     0.000 OA
ENDBRANCH  14  15
ENDBRANCH   9  14
BRANCH  10  19
ATOM     19  O3  IDS d   2     -42.625  31.319 -33.692  0.00  0.00     0.000 OA
ATOM     20  H   IDS d   2     -42.543  31.748 -34.558  0.00  0.00     0.000 HD
ENDBRANCH  10  19
BRANCH  12  21
ATOM     21  C6  IDS d   2     -41.112  32.521 -29.226  0.00  0.00     0.000 C 
ATOM     22  O61 IDS d   2     -41.752  33.586 -29.351  0.00  0.00     0.000 OA
BRANCH  21  23
ATOM     23  O62 IDS d   2     -40.591  32.093 -28.172  0.00  0.00     0.000 OA
ENDBRANCH  21  23
ENDBRANCH  12  21
ENDBRANCH   7   8
ENDBRANCH   6   7
BRANCH   1  25
ATOM     25  O3  SGN d   1     -39.065  26.821 -30.152  0.00  0.00    -0.391 OA
ATOM     26  H   SGN d   1     -39.707  26.122 -30.347  0.00  0.00     0.210 HD
ENDBRANCH   1  25
BRANCH   5  27
ATOM     27  C6  SGN d   1     -36.490  30.024 -32.811  0.00  0.00     0.198 C 
BRANCH  27  28
ATOM     28  O6  SGN d   1     -36.070  30.366 -31.487  0.00  0.00    -0.398 OA
ATOM     29  H   SGN d   1     -35.422  29.715 -31.175  0.00  0.00     0.209 HD
ENDBRANCH  27  28
ENDBRANCH   5  27
BRANCH   4  30
ATOM     30  N   SGN d   1     -38.093  24.681 -31.822  0.00  0.00    -0.189 NA
ATOM     31  H   SGN d   1     -37.795  24.520 -30.860  0.00  0.00     0.143 HD
BRANCH  30  32
ATOM     32  S1  SGN d   1     -39.351  23.701 -32.165  0.00  0.00     0.183 S 
ATOM     33  O2S SGN d   1     -38.894  22.241 -32.133  0.00  0.00    -0.582 OA
ATOM     34  O3S SGN d   1     -40.458  23.922 -31.133  0.00  0.00    -0.582 OA
ATOM     35  O1S SGN d   1     -39.886  24.032 -33.559  0.00  0.00    -0.582 OA
ENDBRANCH  30  32
ENDBRANCH   4  30
BRANCH   2  36
ATOM     36  O1  SGN d   1     -37.777  26.379 -34.139  0.00  0.00    -0.369 OA
ATOM     37  H   SGN d   1     -37.964  27.313 -33.959  0.00  0.00     0.212 HD
ENDBRANCH   2  36
TORSDOF 13
ENDMDL
MODEL 98
REMARK VINA RESULT:       1.3      4.432      7.706
REMARK  13 active torsions:
REMARK  status: ('A' for Active; 'I' for Inactive)
REMARK    1  A    between atoms: C6_1  and  C5_27 
REMARK    2  A    between atoms: C6_1  and  O6_30 
REMARK    3  A    between atoms: O3_2  and  C3_3 
REMARK    4  A    between atoms: C6_4  and  C5_23 
REMARK    5  A    between atoms: C6_4  and  O62_11 
REMARK    6  A    between atoms: C1_6  and  O1_26 
REMARK    7  A    between atoms: C1_7  and  O1_9 
REMARK    8  A    between atoms: O1_9  and  C4_31 
REMARK    9  A    between atoms: C3_10  and  O3_29 
REMARK   10  A    between atoms: S_13  and  O2_22 
REMARK   11  A    between atoms: N_19  and  C2_25 
REMARK   12  A    between atoms: N_19  and  S1_28 
REMARK   13  A    between atoms: C2_20  and  O2_22 
ROOT
ATOM      1  C1  SGN d   1     -39.821  27.328 -31.808  0.00  0.00     0.000 C 
ATOM      2  C2  SGN d   1     -39.013  28.585 -32.082  0.00  0.00     0.000 C 
ATOM      3  C3  SGN d   1     -38.096  28.858 -30.901  0.00  0.00     0.000 C 
ATOM      4  C4  SGN d   1     -38.911  28.924 -29.619  0.00  0.00     0.000 C 
ATOM      5  C5  SGN d   1     -39.741  27.659 -29.479  0.00  0.00     0.000 C 
ATOM      6  O5  SGN d   1     -40.603  27.510 -30.618  0.00  0.00     0.000 OA
ENDROOT
BRANCH   6   7
ATOM      7  O1  SGN d   1     -38.017  29.038 -28.502  0.00  0.00     0.000 OA
BRANCH   7   8
ATOM      8  C1  IDS d   2     -36.865  28.259 -28.151  0.00  0.00     0.000 C 
ATOM      9  C2  IDS d   2     -35.755  29.196 -27.702  0.00  0.00     0.000 C 
ATOM     10  C3  IDS d   2     -34.714  28.405 -26.928  0.00  0.00     0.000 C 
ATOM     11  C4  IDS d   2     -35.353  27.899 -25.646  0.00  0.00     0.000 C 
ATOM     12  C5  IDS d   2     -36.863  27.857 -25.823  0.00  0.00     0.000 C 
ATOM     13  O5  IDS d   2     -37.174  27.313 -27.113  0.00  0.00     0.000 OA
BRANCH   9  14
ATOM     14  O2  IDS d   2     -35.169  29.834 -28.846  0.00  0.00     0.000 OA
BRANCH  14  15
ATOM     15  S   IDS d   2     -35.074  31.266 -28.896  0.00  0.00     0.000 S 
ATOM     16  O3S IDS d   2     -36.473  31.863 -29.065  0.00  0.00     0.000 OA
ATOM     17  O1S IDS d   2     -34.453  31.780 -27.596  0.00  0.00     0.000 OA
ATOM     18  O2S IDS d   2     -34.196  31.680 -30.078  0.00  0.00     0.000 OA
ENDBRANCH  14  15
ENDBRANCH   9  14
BRANCH  10  19
ATOM     19  O3  IDS d   2     -33.608  29.261 -26.603  0.00  0.00     0.000 OA
ATOM     20  H   IDS d   2     -33.922  30.004 -26.064  0.00  0.00     0.000 HD
ENDBRANCH  10  19
BRANCH  12  21
ATOM     21  C6  IDS d   2     -37.475  26.971 -24.737  0.00  0.00     0.000 C 
ATOM     22  O61 IDS d   2     -38.703  26.757 -24.808  0.00  0.00     0.000 OA
BRANCH  21  23
ATOM     23  O62 IDS d   2     -36.695  26.507 -23.875  0.00  0.00     0.000 OA
ENDBRANCH  21  23
ENDBRANCH  12  21
ENDBRANCH   7   8
ENDBRANCH   6   7
BRANCH   1  25
ATOM     25  O3  SGN d   1     -37.421  30.109 -31.098  0.00  0.00    -0.391 OA
ATOM     26  H   SGN d   1     -38.039  30.855 -31.146  0.00  0.00     0.210 HD
ENDBRANCH   1  25
BRANCH   5  27
ATOM     27  C6  SGN d   1     -40.583  27.731 -28.217  0.00  0.00     0.198 C 
BRANCH  27  28
ATOM     28  O6  SGN d   1     -40.033  26.862 -27.223  0.00  0.00    -0.398 OA
ATOM     29  H   SGN d   1     -40.086  27.290 -26.354  0.00  0.00     0.209 HD
ENDBRANCH  27  28
ENDBRANCH   5  27
BRANCH   4  30
ATOM     30  N   SGN d   1     -38.225  28.453 -33.318  0.00  0.00    -0.189 NA
ATOM     31  H   SGN d   1     -38.022  29.442 -33.461  0.00  0.00     0.143 HD
BRANCH  30  32
ATOM     32  S1  SGN d   1     -37.113  27.556 -34.103  0.00  0.00     0.183 S 
ATOM     33  O2S SGN d   1     -35.851  27.429 -33.246  0.00  0.00    -0.582 OA
ATOM     34  O3S SGN d   1     -37.692  26.169 -34.385  0.00  0.00    -0.582 OA
ATOM     35  O1S SGN d   1     -36.758  28.234 -35.427  0.00  0.00    -0.582 OA
ENDBRANCH  30  32
ENDBRANCH   4  30
BRANCH   2  36
ATOM     36  O1  SGN d   1     -38.933  26.214 -31.634  0.00  0.00    -0.369 OA
ATOM     37  H   SGN d   1     -39.772  26.106 -32.108  0.00  0.00     0.212 HD
ENDBRANCH   2  36
TORSDOF 13
ENDMDL
