MODEL 1
REMARK VINA RESULT:      -3.8      0.000      0.000
ROOT
ATOM      1  C1  IDS B   1     -23.916  56.709  12.3780  0.00  0.00     0.000 C
ATOM      2  C2  IDS B   1     -24.995  56.107  11.5160  0.00  0.00     0.000 C
ATOM      3  C3  IDS B   1     -26.313  55.737  12.2360  0.00  0.00     0.000 C
ATOM      4  C4  IDS B   1     -26.613  56.623  13.5020  0.00  0.00     0.000 C
ATOM      5  C5  IDS B   1     -25.326  57.156  14.1760  0.00  0.00     0.000 C
ATOM      6  O5  IDS B   1     -24.470  57.707  13.2110  0.00  0.00     0.000 O
ATOM      7   O  IDS B   1     -26.232  54.358  12.5840  0.00  0.00     0.000 O
ATOM      9  HD  IDS B   1     -26.790  54.757  13.1110  0.00  0.00     0.000 HD
ATOM      9   O  IDS B   1     -27.374  57.732  13.0790  0.00  0.00     0.000 O
ATOM     11  HD  IDS B   1     -27.933  58.131  13.6070  0.00  0.00     0.000 HD
ENDROOT
BRANCH 2 11
ATOM     11   O  IDS B   1     -25.335  56.995  10.5070  0.00  0.00     0.000 O
ATOM     12  @S  IDS B   1     -25.670  56.584   9.0600  0.00  0.00     0.000 S
ATOM     13   O  IDS B   1     -24.954  55.337   8.8800  0.00  0.00     0.000 OA
ATOM     14   O  IDS B   1     -27.110  56.414   8.9990  0.00  0.00     0.000 OA
ATOM     15   O  IDS B   1     -25.194  57.666   8.2220  0.00  0.00     0.000 OA
ENDBRANCH 2 11
BRANCH 5 16
ATOM     16 @CA  IDS B   1     -25.515  58.147  15.3210  0.00  0.00     0.000 C
ATOM     17   O  IDS B   1     -26.341  59.055  15.2580  0.00  0.00     0.000 OA
ATOM     18   O  IDS B   1     -24.848  58.047  16.3480  0.00  0.00     0.000 OA
ENDBRANCH 5 16
BRANCH 1 19
ATOM     19  O4  SGN B   2     -23.342  55.672  13.1470  0.00  0.00     0.000 O
BRANCH 19 23
ATOM     20  C1  SGN B   2     -19.778  55.584  15.1580  0.00  0.00     0.000 C
ATOM     21  C2  SGN B   2     -21.052  55.793  15.9460  0.00  0.00     0.000 C
ATOM     22  C3  SGN B   2     -22.199  55.228  15.1900  0.00  0.00     0.000 C
ATOM     23  C4  SGN B   2     -22.265  56.053  13.9250  0.00  0.00     0.000 C
ATOM     24  C5  SGN B   2     -21.020  55.723  13.1780  0.00  0.00     0.000 C
ATOM     25  O5  SGN B   2     -19.926  56.189  13.8810  0.00  0.00     0.000 O
ATOM     26   O  SGN B   2     -23.360  55.382  15.9280  0.00  0.00     0.000 O
ATOM     28  HD  SGN B   2     -24.123  55.618  16.2640  0.00  0.00     0.000 HD
BRANCH 21 30
ATOM     28   N  SGN B   2     -19.964  55.565  16.8510  0.00  0.00     0.000 N
ATOM     30  HD  SGN B   2     -20.177  54.767  17.1130  0.00  0.00     0.000 HD
ATOM     30 @NS  SGN B   2     -20.146  56.102  18.3740  0.00  0.00     0.000 S
ATOM     31   O  SGN B   2     -21.476  56.583  18.5450  0.00  0.00     0.000 OA
ATOM     32   O  SGN B   2     -19.905  54.962  19.1580  0.00  0.00     0.000 OA
ATOM     33   O  SGN B   2     -19.202  57.142  18.5420  0.00  0.00     0.000 OA
ENDBRANCH 21 30
BRANCH 24 34
ATOM     34   C  SGN B   2     -20.927  56.296  11.8120  0.00  0.00     0.000 C
ATOM     35   O  SGN B   2     -20.935  55.243  10.9160  0.00  0.00     0.000 O
ATOM     36  @S  SGN B   2     -21.069  55.423   9.4080  0.00  0.00     0.000 S
ATOM     37   O  SGN B   2     -19.702  55.515   8.9370  0.00  0.00     0.000 OA
ATOM     38   O  SGN B   2     -21.775  54.264   8.9130  0.00  0.00     0.000 OA
ATOM     39   O  SGN B   2     -21.836  56.649   9.2370  0.00  0.00     0.000 OA
ENDBRANCH 24 34
BRANCH 20 40
ATOM     40  O4  IDS B   3     -19.491  54.224  15.0440  0.00  0.00     0.000 O
BRANCH 40 44
ATOM     41  C1  IDS B   3     -17.303  51.486  14.9320  0.00  0.00     0.000 C
ATOM     42  C2  IDS B   3     -16.883  52.786  15.6140  0.00  0.00     0.000 C
ATOM     43  C3  IDS B   3     -17.163  54.076  14.8190  0.00  0.00     0.000 C
ATOM     44  C4  IDS B   3     -18.497  53.993  14.1030  0.00  0.00     0.000 C
ATOM     45  C5  IDS B   3     -18.710  52.626  13.4360  0.00  0.00     0.000 C
ATOM     46  O5  IDS B   3     -18.600  51.614  14.3690  0.00  0.00     0.000 O
ATOM     47   O  IDS B   3     -16.151  54.259  13.8510  0.00  0.00     0.000 O
ATOM     49  HD  IDS B   3     -16.777  54.504  14.3980  0.00  0.00     0.000 HD
BRANCH 42 49
ATOM     49   O  IDS B   3     -17.569  52.893  16.8280  0.00  0.00     0.000 O
ATOM     50   O  IDS B   3     -15.842  51.761  17.9620  0.00  0.00     0.000 OA
ATOM     51   O  IDS B   3     -16.913  53.587  19.0220  0.00  0.00     0.000 OA
ATOM     52   O  IDS B   3     -18.081  51.568  18.6570  0.00  0.00     0.000 OA
ATOM     53  @S  IDS B   3     -17.069  52.429  18.1990  0.00  0.00     0.000 S
ENDBRANCH 42 49
BRANCH 45 54
ATOM     54 @CA  IDS B   3     -20.018  52.472  12.6620  0.00  0.00     0.000 C
ATOM     55   O  IDS B   3     -20.044  52.473  11.4610  0.00  0.00     0.000 OA
ATOM     56   O  IDS B   3     -21.052  52.325  13.2240  0.00  0.00     0.000 OA
ENDBRANCH 45 54
BRANCH 41 57
ATOM     57  O4  SGN B   4     -16.359  51.137  13.9720  0.00  0.00     0.000 O
BRANCH 57 61
ATOM     58  C1  SGN B   4     -18.218  47.615  12.9040  0.00  0.00     0.000 C
ATOM     59  C2  SGN B   4     -17.298  47.533  14.1110  0.00  0.00     0.000 C
ATOM     60  C3  SGN B   4     -16.996  48.936  14.6290  0.00  0.00     0.000 C
ATOM     61  C4  SGN B   4     -16.413  49.820  13.5200  0.00  0.00     0.000 C
ATOM     62  C5  SGN B   4     -17.364  49.761  12.3270  0.00  0.00     0.000 C
ATOM     63  O5  SGN B   4     -17.596  48.425  11.9200  0.00  0.00     0.000 O
ATOM     64   O  SGN B   4     -16.048  48.842  15.6720  0.00  0.00     0.000 O
ATOM     66  HD  SGN B   4     -15.298  49.258  15.5500  0.00  0.00     0.000 HD
BRANCH 59 68
ATOM     66   N  SGN B   4     -16.922  46.161  14.3870  0.00  0.00     0.000 N
ATOM     68  HD  SGN B   4     -17.084  46.651  13.6910  0.00  0.00     0.000 HD
ATOM     68 @NS  SGN B   4     -18.035  45.106  14.9690  0.00  0.00     0.000 S
ATOM     69   O  SGN B   4     -18.880  45.807  15.8900  0.00  0.00     0.000 OA
ATOM     70   O  SGN B   4     -18.776  44.641  13.8320  0.00  0.00     0.000 OA
ATOM     71   O  SGN B   4     -17.258  44.082  15.5990  0.00  0.00     0.000 OA
ENDBRANCH 59 68
BRANCH 62 72
ATOM     72   C  SGN B   4     -16.831  50.501  11.1090  0.00  0.00     0.000 C
ATOM     73   O  SGN B   4     -15.543  50.002  10.9020  0.00  0.00     0.000 O
ATOM     74  @S  SGN B   4     -14.804  49.846   9.5610  0.00  0.00     0.000 S
ATOM     75   O  SGN B   4     -14.735  51.128   8.9650  0.00  0.00     0.000 OA
ATOM     76   O  SGN B   4     -13.513  49.347   9.9280  0.00  0.00     0.000 OA
ATOM     77   O  SGN B   4     -15.595  48.953   8.7830  0.00  0.00     0.000 OA
ENDBRANCH 62 72
BRANCH 58 78
ATOM     78  O4  IDS B   5     -19.483  48.114  13.2890  0.00  0.00     0.000 O
BRANCH 78 82
ATOM     79  C1  IDS B   5     -22.791  49.021  13.7670  0.00  0.00     0.000 C
ATOM     80  C2  IDS B   5     -22.181  47.980  14.6560  0.00  0.00     0.000 C
ATOM     81  C3  IDS B   5     -21.458  46.870  13.8980  0.00  0.00     0.000 C
ATOM     82  C4  IDS B   5     -20.586  47.398  12.7780  0.00  0.00     0.000 C
ATOM     83  C5  IDS B   5     -21.422  48.325  11.9550  0.00  0.00     0.000 C
ATOM     84  O5  IDS B   5     -21.870  49.399  12.7600  0.00  0.00     0.000 O
ATOM     85   O  IDS B   5     -22.435  46.037  13.3220  0.00  0.00     0.000 O
ATOM     87  HD  IDS B   5     -21.769  46.433  12.9360  0.00  0.00     0.000 HD
BRANCH 80 87
ATOM     87   O  IDS B   5     -21.248  48.592  15.4560  0.00  0.00     0.000 O
ATOM     88  @S  IDS B   5     -21.332  48.810  16.9690  0.00  0.00     0.000 S
ATOM     89   O  IDS B   5     -21.597  47.527  17.5120  0.00  0.00     0.000 OA
ATOM     90   O  IDS B   5     -20.074  49.354  17.3420  0.00  0.00     0.000 OA
ATOM     91   O  IDS B   5     -22.394  49.732  17.1730  0.00  0.00     0.000 OA
ENDBRANCH 80 87
BRANCH 83 92
ATOM     92 @CA  IDS B   5     -20.739  48.795  10.6760  0.00  0.00     0.000 C
ATOM     93   O  IDS B   5     -20.009  48.038  10.0310  0.00  0.00     0.000 OA
ATOM     94   O  IDS B   5     -20.901  49.950  10.2640  0.00  0.00     0.000 OA
ENDBRANCH 83 92
BRANCH 79 95
ATOM     95  O4  SGN B   6     -23.981  48.539  13.2380  0.00  0.00     0.000 O
BRANCH 95 99
ATOM     96  C1  SGN B   6     -27.504  50.346  11.9990  0.00  0.00     0.000 C
ATOM     97  C2  SGN B   6     -26.457  50.114  10.9160  0.00  0.00     0.000 C
ATOM     98  C3  SGN B   6     -25.545  48.997  11.4230  0.00  0.00     0.000 C
ATOM     99  C4  SGN B   6     -24.828  49.535  12.6940  0.00  0.00     0.000 C
ATOM    100  C5  SGN B   6     -25.943  49.867  13.7260  0.00  0.00     0.000 C
ATOM    101  O5  SGN B   6     -26.889  50.789  13.1930  0.00  0.00     0.000 O
BRANCH 97 104
ATOM    102   N  SGN B   6     -27.456  50.000   9.8480  0.00  0.00     0.000 N
ATOM    104  HD  SGN B   6     -27.066  49.772   9.1090  0.00  0.00     0.000 HD
ATOM    104 @NS  SGN B   6     -27.344  51.058   8.5750  0.00  0.00     0.000 S
ATOM    105   O  SGN B   6     -26.185  51.894   8.8000  0.00  0.00     0.000 OA
ATOM    106   O  SGN B   6     -27.216  50.257   7.3790  0.00  0.00     0.000 OA
ATOM    107   O  SGN B   6     -28.564  51.834   8.5920  0.00  0.00     0.000 OA
ENDBRANCH 97 104
BRANCH 100 108
ATOM    108   C  SGN B   6     -25.476  50.463  15.0490  0.00  0.00     0.000 C
ATOM    109   O  SGN B   6     -25.912  51.797  15.1400  0.00  0.00     0.000 O
ATOM    110  @S  SGN B   6     -25.639  52.774  16.3400  0.00  0.00     0.000 S
ATOM    111   O  SGN B   6     -24.276  52.530  16.7470  0.00  0.00     0.000 OA
ATOM    112   O  SGN B   6     -25.824  54.121  15.8230  0.00  0.00     0.000 OA
ATOM    113   O  SGN B   6     -26.599  52.419  17.3600  0.00  0.00     0.000 OA
ENDBRANCH 100 108
ENDBRANCH 95 99
ENDBRANCH 79 95
ENDBRANCH 78 82
ENDBRANCH 58 78
ENDBRANCH 57 61
ENDBRANCH 41 57
ENDBRANCH 40 44
ENDBRANCH 20 40
ENDBRANCH 19 23
ENDBRANCH 1 19
TORSDOF 22
ENDMDL
MODEL 2
REMARK VINA RESULT:      -3.0      3.536     10.249
ROOT
ATOM      1  C1  IDS B   1     -15.484  49.749  11.8600  0.00  0.00     0.000 C
ATOM      2  C2  IDS B   1     -15.546  48.768  10.7190  0.00  0.00     0.000 C
ATOM      3  C3  IDS B   1     -15.381  49.363   9.3000  0.00  0.00     0.000 C
ATOM      4  C4  IDS B   1     -14.517  50.678   9.2620  0.00  0.00     0.000 C
ATOM      5  C5  IDS B   1     -14.592  51.481  10.5840  0.00  0.00     0.000 C
ATOM      6  O5  IDS B   1     -14.392  50.627  11.6780  0.00  0.00     0.000 O
ATOM      7   O  IDS B   1     -16.689  49.595   8.7850  0.00  0.00     0.000 O
ATOM      9  HD  IDS B   1     -16.124  50.116   8.3870  0.00  0.00     0.000 HD
ATOM      9   O  IDS B   1     -13.173  50.302   9.0580  0.00  0.00     0.000 O
ATOM     11  HD  IDS B   1     -12.609  50.824   8.6590  0.00  0.00     0.000 HD
ENDROOT
BRANCH 2 11
ATOM     11   O  IDS B   1     -14.546  47.819  10.8650  0.00  0.00     0.000 O
ATOM     12  @S  IDS B   1     -14.619  46.384  10.3100  0.00  0.00     0.000 S
ATOM     13   O  IDS B   1     -16.040  46.108  10.2480  0.00  0.00     0.000 OA
ATOM     14   O  IDS B   1     -13.999  46.413   8.9980  0.00  0.00     0.000 OA
ATOM     15   O  IDS B   1     -13.896  45.557  11.2560  0.00  0.00     0.000 OA
ENDBRANCH 2 11
BRANCH 5 16
ATOM     16 @CA  IDS B   1     -13.672  52.692  10.7000  0.00  0.00     0.000 C
ATOM     17   O  IDS B   1     -13.314  53.127  11.7910  0.00  0.00     0.000 OA
ATOM     18   O  IDS B   1     -13.253  53.255   9.6910  0.00  0.00     0.000 OA
ENDBRANCH 5 16
BRANCH 1 19
ATOM     19  O4  SGN B   2     -16.703  50.462  11.8900  0.00  0.00     0.000 O
BRANCH 19 23
ATOM     20  C1  SGN B   2     -19.151  51.689  14.9330  0.00  0.00     0.000 C
ATOM     21  C2  SGN B   2     -17.687  52.065  14.9830  0.00  0.00     0.000 C
ATOM     22  C3  SGN B   2     -17.129  52.061  13.6050  0.00  0.00     0.000 C
ATOM     23  C4  SGN B   2     -17.251  50.625  13.1480  0.00  0.00     0.000 C
ATOM     24  C5  SGN B   2     -18.715  50.370  13.0480  0.00  0.00     0.000 C
ATOM     25  O5  SGN B   2     -19.277  50.419  14.3090  0.00  0.00     0.000 O
ATOM     26   O  SGN B   2     -15.799  52.444  13.6450  0.00  0.00     0.000 O
ATOM     28  HD  SGN B   2     -14.935  52.496  13.6410  0.00  0.00     0.000 HD
BRANCH 21 30
ATOM     28   N  SGN B   2     -17.487  51.952  16.3980  0.00  0.00     0.000 N
ATOM     30  HD  SGN B   2     -18.305  51.789  16.6320  0.00  0.00     0.000 HD
ATOM     30 @NS  SGN B   2     -17.526  53.330  17.2590  0.00  0.00     0.000 S
ATOM     31   O  SGN B   2     -17.917  54.403  16.4090  0.00  0.00     0.000 OA
ATOM     32   O  SGN B   2     -18.493  53.075  18.2460  0.00  0.00     0.000 OA
ATOM     33   O  SGN B   2     -16.215  53.523  17.7550  0.00  0.00     0.000 OA
ENDBRANCH 21 30
BRANCH 24 34
ATOM     34   C  SGN B   2     -19.094  49.061  12.4600  0.00  0.00     0.000 C
ATOM     35   O  SGN B   2     -19.508  49.291  11.1610  0.00  0.00     0.000 O
ATOM     36  @S  SGN B   2     -19.775  48.178  10.1550  0.00  0.00     0.000 S
ATOM     37   O  SGN B   2     -21.187  47.887  10.3110  0.00  0.00     0.000 OA
ATOM     38   O  SGN B   2     -19.434  48.704   8.8530  0.00  0.00     0.000 OA
ATOM     39   O  SGN B   2     -18.900  47.085  10.5540  0.00  0.00     0.000 OA
ENDBRANCH 24 34
BRANCH 20 40
ATOM     40  O4  IDS B   3     -19.882  52.663  14.2520  0.00  0.00     0.000 O
BRANCH 40 44
ATOM     41  C1  IDS B   3     -22.722  54.652  13.7240  0.00  0.00     0.000 C
ATOM     42  C2  IDS B   3     -22.429  54.070  15.1060  0.00  0.00     0.000 C
ATOM     43  C3  IDS B   3     -22.052  52.576  15.1320  0.00  0.00     0.000 C
ATOM     44  C4  IDS B   3     -21.164  52.219  13.9570  0.00  0.00     0.000 C
ATOM     45  C5  IDS B   3     -21.655  52.858  12.6480  0.00  0.00     0.000 C
ATOM     46  O5  IDS B   3     -21.743  54.229  12.7870  0.00  0.00     0.000 O
ATOM     47   O  IDS B   3     -23.226  51.795  15.0540  0.00  0.00     0.000 O
ATOM     49  HD  IDS B   3     -22.404  51.968  15.2630  0.00  0.00     0.000 HD
BRANCH 42 49
ATOM     49   O  IDS B   3     -21.360  54.775  15.6680  0.00  0.00     0.000 O
ATOM     50   O  IDS B   3     -22.834  56.079  16.9620  0.00  0.00     0.000 OA
ATOM     51   O  IDS B   3     -20.789  55.362  17.9160  0.00  0.00     0.000 OA
ATOM     52   O  IDS B   3     -20.798  56.962  16.1800  0.00  0.00     0.000 OA
ATOM     53  @S  IDS B   3     -21.451  55.855  16.7490  0.00  0.00     0.000 S
ENDBRANCH 42 49
BRANCH 45 54
ATOM     54 @CA  IDS B   3     -20.833  52.518  11.4070  0.00  0.00     0.000 C
ATOM     55   O  IDS B   3     -21.254  51.787  10.5520  0.00  0.00     0.000 OA
ATOM     56   O  IDS B   3     -19.756  52.986  11.2330  0.00  0.00     0.000 OA
ENDBRANCH 45 54
BRANCH 41 57
ATOM     57  O4  SGN B   4     -24.004  54.289  13.3280  0.00  0.00     0.000 O
BRANCH 57 61
ATOM     58  C1  SGN B   4     -26.879  55.321  10.5590  0.00  0.00     0.000 C
ATOM     59  C2  SGN B   4     -25.529  54.923   9.9860  0.00  0.00     0.000 C
ATOM     60  C3  SGN B   4     -24.706  54.205  11.0520  0.00  0.00     0.000 C
ATOM     61  C4  SGN B   4     -24.567  55.063  12.3140  0.00  0.00     0.000 C
ATOM     62  C5  SGN B   4     -25.968  55.482  12.7520  0.00  0.00     0.000 C
ATOM     63  O5  SGN B   4     -26.662  56.130  11.7030  0.00  0.00     0.000 O
ATOM     64   O  SGN B   4     -23.416  53.952  10.5360  0.00  0.00     0.000 O
ATOM     66  HD  SGN B   4     -22.753  54.308  10.9650  0.00  0.00     0.000 HD
BRANCH 59 68
ATOM     66   N  SGN B   4     -25.363  55.372   8.6190  0.00  0.00     0.000 N
ATOM     68  HD  SGN B   4     -25.724  55.668   9.3480  0.00  0.00     0.000 HD
ATOM     68 @NS  SGN B   4     -26.267  54.709   7.4220  0.00  0.00     0.000 S
ATOM     69   O  SGN B   4     -26.417  53.310   7.6950  0.00  0.00     0.000 OA
ATOM     70   O  SGN B   4     -27.531  55.385   7.4560  0.00  0.00     0.000 OA
ATOM     71   O  SGN B   4     -25.518  54.963   6.2290  0.00  0.00     0.000 OA
ENDBRANCH 59 68
BRANCH 62 72
ATOM     72   C  SGN B   4     -25.956  56.447  13.9280  0.00  0.00     0.000 C
ATOM     73   O  SGN B   4     -26.340  57.682  13.4030  0.00  0.00     0.000 O
ATOM     74  @S  SGN B   4     -27.116  58.802  14.1170  0.00  0.00     0.000 S
ATOM     75   O  SGN B   4     -26.367  59.175  15.2600  0.00  0.00     0.000 OA
ATOM     76   O  SGN B   4     -27.187  59.854  13.1480  0.00  0.00     0.000 OA
ATOM     77   O  SGN B   4     -28.371  58.234  14.4810  0.00  0.00     0.000 OA
ENDBRANCH 62 72
BRANCH 58 78
ATOM     78  O4  IDS B   5     -27.641  54.168  10.8550  0.00  0.00     0.000 O
BRANCH 78 82
ATOM     79  C1  IDS B   5     -29.929  51.598  11.2500  0.00  0.00     0.000 C
ATOM     80  C2  IDS B   5     -29.390  51.895   9.8840  0.00  0.00     0.000 C
ATOM     81  C3  IDS B   5     -29.470  53.370   9.4980  0.00  0.00     0.000 C
ATOM     82  C4  IDS B   5     -29.026  54.292  10.6150  0.00  0.00     0.000 C
ATOM     83  C5  IDS B   5     -29.767  53.891  11.8510  0.00  0.00     0.000 C
ATOM     84  O5  IDS B   5     -29.448  52.552  12.1800  0.00  0.00     0.000 O
ATOM     85   O  IDS B   5     -30.815  53.666   9.2080  0.00  0.00     0.000 O
ATOM     87  HD  IDS B   5     -30.281  54.066   9.7610  0.00  0.00     0.000 HD
BRANCH 80 87
ATOM     87   O  IDS B   5     -28.063  51.546   9.8600  0.00  0.00     0.000 O
ATOM     88  @S  IDS B   5     -27.428  50.389   9.0860  0.00  0.00     0.000 S
ATOM     89   O  IDS B   5     -27.856  50.565   7.7450  0.00  0.00     0.000 OA
ATOM     90   O  IDS B   5     -26.027  50.531   9.2750  0.00  0.00     0.000 OA
ATOM     91   O  IDS B   5     -27.929  49.198   9.6780  0.00  0.00     0.000 OA
ENDBRANCH 80 87
BRANCH 83 92
ATOM     92 @CA  IDS B   5     -29.569  54.846  13.0220  0.00  0.00     0.000 C
ATOM     93   O  IDS B   5     -29.069  54.457  14.0800  0.00  0.00     0.000 OA
ATOM     94   O  IDS B   5     -29.911  56.031  12.9320  0.00  0.00     0.000 OA
ENDBRANCH 83 92
BRANCH 79 95
ATOM     95  O4  SGN B   6     -31.317  51.562  11.2030  0.00  0.00     0.000 O
BRANCH 95 99
ATOM     96  C1  SGN B   6     -34.358  50.165  13.6550  0.00  0.00     0.000 C
ATOM     97  C2  SGN B   6     -33.374  51.134  14.3000  0.00  0.00     0.000 C
ATOM     98  C3  SGN B   6     -32.727  51.922  13.1610  0.00  0.00     0.000 C
ATOM     99  C4  SGN B   6     -31.925  50.905  12.3010  0.00  0.00     0.000 C
ATOM    100  C5  SGN B   6     -32.953  49.871  11.7600  0.00  0.00     0.000 C
ATOM    101  O5  SGN B   6     -33.673  49.250  12.8220  0.00  0.00     0.000 O
BRANCH 97 104
ATOM    102   N  SGN B   6     -34.326  50.851  15.3790  0.00  0.00     0.000 N
ATOM    104  HD  SGN B   6     -34.704  51.588  15.6330  0.00  0.00     0.000 HD
ATOM    104 @NS  SGN B   6     -34.014  51.507  16.8700  0.00  0.00     0.000 S
ATOM    105   O  SGN B   6     -32.806  52.295  16.7600  0.00  0.00     0.000 OA
ATOM    106   O  SGN B   6     -35.161  52.313  17.2190  0.00  0.00     0.000 OA
ATOM    107   O  SGN B   6     -33.832  50.388  17.7680  0.00  0.00     0.000 OA
ENDBRANCH 97 104
BRANCH 100 108
ATOM    108   C  SGN B   6     -32.383  48.734  10.9200  0.00  0.00     0.000 C
ATOM    109   O  SGN B   6     -31.810  47.769  11.7680  0.00  0.00     0.000 O
ATOM    110  @S  SGN B   6     -31.107  46.441  11.3070  0.00  0.00     0.000 S
ATOM    111   O  SGN B   6     -30.334  46.787  10.1380  0.00  0.00     0.000 OA
ATOM    112   O  SGN B   6     -30.265  46.016  12.4140  0.00  0.00     0.000 OA
ATOM    113   O  SGN B   6     -32.176  45.513  11.0160  0.00  0.00     0.000 OA
ENDBRANCH 100 108
ENDBRANCH 95 99
ENDBRANCH 79 95
ENDBRANCH 78 82
ENDBRANCH 58 78
ENDBRANCH 57 61
ENDBRANCH 41 57
ENDBRANCH 40 44
ENDBRANCH 20 40
ENDBRANCH 19 23
ENDBRANCH 1 19
TORSDOF 22
ENDMDL
MODEL 3
REMARK VINA RESULT:      -2.6      3.458      6.312
ROOT
ATOM      1  C1  IDS B   1     -24.037  58.183   8.7070  0.00  0.00     0.000 C
ATOM      2  C2  IDS B   1     -25.017  57.081   9.0150  0.00  0.00     0.000 C
ATOM      3  C3  IDS B   1     -26.208  57.464   9.9260  0.00  0.00     0.000 C
ATOM      4  C4  IDS B   1     -26.617  58.981   9.8270  0.00  0.00     0.000 C
ATOM      5  C5  IDS B   1     -25.428  59.897   9.4480  0.00  0.00     0.000 C
ATOM      6  O5  IDS B   1     -24.736  59.359   8.3540  0.00  0.00     0.000 O
ATOM      7   O  IDS B   1     -25.848  57.117  11.2600  0.00  0.00     0.000 O
ATOM      9  HD  IDS B   1     -26.450  57.740  11.2750  0.00  0.00     0.000 HD
ATOM      9   O  IDS B   1     -27.594  59.097   8.8170  0.00  0.00     0.000 O
ATOM     11  HD  IDS B   1     -28.196  59.719   8.8330  0.00  0.00     0.000 HD
ENDROOT
BRANCH 2 11
ATOM     11   O  IDS B   1     -25.564  56.600   7.8360  0.00  0.00     0.000 O
ATOM     12  @S  IDS B   1     -26.129  55.178   7.6540  0.00  0.00     0.000 S
ATOM     13   O  IDS B   1     -25.406  54.390   8.6300  0.00  0.00     0.000 OA
ATOM     14   O  IDS B   1     -27.550  55.255   7.9420  0.00  0.00     0.000 OA
ATOM     15   O  IDS B   1     -25.853  54.816   6.2780  0.00  0.00     0.000 OA
ENDBRANCH 2 11
BRANCH 5 16
ATOM     16 @CA  IDS B   1     -25.755  61.363   9.1810  0.00  0.00     0.000 C
ATOM     17   O  IDS B   1     -26.612  61.694   8.3650  0.00  0.00     0.000 OA
ATOM     18   O  IDS B   1     -25.171  62.254   9.7940  0.00  0.00     0.000 OA
ENDBRANCH 5 16
BRANCH 1 19
ATOM     19  O4  SGN B   2     -23.243  58.395   9.8560  0.00  0.00     0.000 O
BRANCH 19 23
ATOM     20  C1  SGN B   2     -19.435  59.876  10.1080  0.00  0.00     0.000 C
ATOM     21  C2  SGN B   2     -20.588  60.759  10.5320  0.00  0.00     0.000 C
ATOM     22  C3  SGN B   2     -21.744  59.910  10.9210  0.00  0.00     0.000 C
ATOM     23  C4  SGN B   2     -22.125  59.182   9.6520  0.00  0.00     0.000 C
ATOM     24  C5  SGN B   2     -20.976  58.281   9.3580  0.00  0.00     0.000 C
ATOM     25  O5  SGN B   2     -19.866  59.041   9.0430  0.00  0.00     0.000 O
ATOM     26   O  SGN B   2     -22.785  60.716  11.3480  0.00  0.00     0.000 O
ATOM     28  HD  SGN B   2     -23.513  61.176  11.4430  0.00  0.00     0.000 HD
BRANCH 21 30
ATOM     28   N  SGN B   2     -19.584  61.715  10.1620  0.00  0.00     0.000 N
ATOM     30  HD  SGN B   2     -18.897  61.326  10.5180  0.00  0.00     0.000 HD
ATOM     30 @NS  SGN B   2     -19.370  62.981  11.1580  0.00  0.00     0.000 S
ATOM     31   O  SGN B   2     -20.159  62.795  12.3290  0.00  0.00     0.000 OA
ATOM     32   O  SGN B   2     -17.996  62.942  11.4510  0.00  0.00     0.000 OA
ATOM     33   O  SGN B   2     -19.786  64.125  10.4380  0.00  0.00     0.000 OA
ENDBRANCH 21 30
BRANCH 24 34
ATOM     34   C  SGN B   2     -21.182  57.336   8.2320  0.00  0.00     0.000 C
ATOM     35   O  SGN B   2     -21.185  56.056   8.7580  0.00  0.00     0.000 O
ATOM     36  @S  SGN B   2     -21.580  54.821   7.9570  0.00  0.00     0.000 S
ATOM     37   O  SGN B   2     -20.331  54.343   7.3990  0.00  0.00     0.000 OA
ATOM     38   O  SGN B   2     -22.187  53.899   8.8890  0.00  0.00     0.000 OA
ATOM     39   O  SGN B   2     -22.527  55.299   6.9600  0.00  0.00     0.000 OA
ENDBRANCH 24 34
BRANCH 20 40
ATOM     40  O4  IDS B   3     -18.974  59.123  11.1880  0.00  0.00     0.000 O
BRANCH 40 44
ATOM     41  C1  IDS B   3     -16.632  57.961  13.5260  0.00  0.00     0.000 C
ATOM     42  C2  IDS B   3     -16.523  59.374  12.9550  0.00  0.00     0.000 C
ATOM     43  C3  IDS B   3     -16.672  59.488  11.4260  0.00  0.00     0.000 C
ATOM     44  C4  IDS B   3     -17.742  58.545  10.9130  0.00  0.00     0.000 C
ATOM     45  C5  IDS B   3     -17.652  57.158  11.5690  0.00  0.00     0.000 C
ATOM     46  O5  IDS B   3     -17.727  57.271  12.9430  0.00  0.00     0.000 O
ATOM     47   O  IDS B   3     -15.448  59.146  10.8100  0.00  0.00     0.000 O
ATOM     49  HD  IDS B   3     -16.218  59.536  10.8760  0.00  0.00     0.000 HD
BRANCH 42 49
ATOM     49   O  IDS B   3     -17.527  60.163  13.5270  0.00  0.00     0.000 O
ATOM     50   O  IDS B   3     -16.227  60.503  15.4620  0.00  0.00     0.000 OA
ATOM     51   O  IDS B   3     -17.512  62.298  14.6080  0.00  0.00     0.000 OA
ATOM     52   O  IDS B   3     -18.576  60.426  15.5740  0.00  0.00     0.000 OA
ATOM     53  @S  IDS B   3     -17.453  60.894  14.8700  0.00  0.00     0.000 S
ENDBRANCH 42 49
BRANCH 45 54
ATOM     54 @CA  IDS B   3     -18.676  56.136  11.0800  0.00  0.00     0.000 C
ATOM     55   O  IDS B   3     -19.773  56.061  11.5660  0.00  0.00     0.000 OA
ATOM     56   O  IDS B   3     -18.431  55.396  10.1860  0.00  0.00     0.000 OA
ENDBRANCH 45 54
BRANCH 41 57
ATOM     57  O4  SGN B   4     -15.434  57.285  13.3280  0.00  0.00     0.000 O
BRANCH 57 61
ATOM     58  C1  SGN B   4     -16.419  54.186  15.8620  0.00  0.00     0.000 C
ATOM     59  C2  SGN B   4     -15.743  55.379  16.5160  0.00  0.00     0.000 C
ATOM     60  C3  SGN B   4     -15.791  56.581  15.5770  0.00  0.00     0.000 C
ATOM     61  C4  SGN B   4     -15.173  56.242  14.2150  0.00  0.00     0.000 C
ATOM     62  C5  SGN B   4     -15.856  54.982  13.6910  0.00  0.00     0.000 C
ATOM     63  O5  SGN B   4     -15.773  53.925  14.6270  0.00  0.00     0.000 O
ATOM     64   O  SGN B   4     -15.055  57.639  16.1540  0.00  0.00     0.000 O
ATOM     66  HD  SGN B   4     -14.380  57.932  15.6980  0.00  0.00     0.000 HD
BRANCH 59 68
ATOM     66   N  SGN B   4     -15.195  54.994  17.8010  0.00  0.00     0.000 N
ATOM     68  HD  SGN B   4     -15.326  54.628  17.0270  0.00  0.00     0.000 HD
ATOM     68 @NS  SGN B   4     -16.196  54.705  19.0670  0.00  0.00     0.000 S
ATOM     69   O  SGN B   4     -17.274  55.648  19.0120  0.00  0.00     0.000 OA
ATOM     70   O  SGN B   4     -16.670  53.362  18.9030  0.00  0.00     0.000 OA
ATOM     71   O  SGN B   4     -15.367  54.879  20.2210  0.00  0.00     0.000 OA
ENDBRANCH 59 68
BRANCH 62 72
ATOM     72   C  SGN B   4     -15.240  54.470  12.3980  0.00  0.00     0.000 C
ATOM     73   O  SGN B   4     -15.292  53.077  12.4840  0.00  0.00     0.000 O
ATOM     74  @S  SGN B   4     -15.449  52.073  11.3290  0.00  0.00     0.000 S
ATOM     75   O  SGN B   4     -14.372  52.284  10.4350  0.00  0.00     0.000 OA
ATOM     76   O  SGN B   4     -15.383  50.792  11.9670  0.00  0.00     0.000 OA
ATOM     77   O  SGN B   4     -16.699  52.377  10.7180  0.00  0.00     0.000 OA
ENDBRANCH 62 72
BRANCH 58 78
ATOM     78  O4  IDS B   5     -17.800  54.435  15.7030  0.00  0.00     0.000 O
BRANCH 78 82
ATOM     79  C1  IDS B   5     -21.260  54.537  15.5690  0.00  0.00     0.000 C
ATOM     80  C2  IDS B   5     -20.573  54.695  16.8920  0.00  0.00     0.000 C
ATOM     81  C3  IDS B   5     -19.529  53.619  17.1760  0.00  0.00     0.000 C
ATOM     82  C4  IDS B   5     -18.640  53.336  15.9820  0.00  0.00     0.000 C
ATOM     83  C5  IDS B   5     -19.530  53.099  14.8040  0.00  0.00     0.000 C
ATOM     84  O5  IDS B   5     -20.309  54.256  14.5590  0.00  0.00     0.000 O
ATOM     85   O  IDS B   5     -20.212  52.429  17.4900  0.00  0.00     0.000 O
ATOM     87  HD  IDS B   5     -19.598  52.556  16.8920  0.00  0.00     0.000 HD
BRANCH 80 87
ATOM     87   O  IDS B   5     -19.916  55.900  16.8930  0.00  0.00     0.000 O
ATOM     88  @S  IDS B   5     -20.247  57.129  17.7440  0.00  0.00     0.000 S
ATOM     89   O  IDS B   5     -20.286  56.652  19.0790  0.00  0.00     0.000 OA
ATOM     90   O  IDS B   5     -19.205  58.059  17.4860  0.00  0.00     0.000 OA
ATOM     91   O  IDS B   5     -21.507  57.598  17.2830  0.00  0.00     0.000 OA
ENDBRANCH 80 87
BRANCH 83 92
ATOM     92 @CA  IDS B   5     -18.790  52.616  13.5620  0.00  0.00     0.000 C
ATOM     93   O  IDS B   5     -18.161  51.555  13.5710  0.00  0.00     0.000 OA
ATOM     94   O  IDS B   5     -18.803  53.285  12.5220  0.00  0.00     0.000 OA
ENDBRANCH 83 92
BRANCH 79 95
ATOM     95  O4  SGN B   6     -22.232  53.550  15.6670  0.00  0.00     0.000 O
BRANCH 95 99
ATOM     96  C1  SGN B   6     -25.282  52.099  13.2580  0.00  0.00     0.000 C
ATOM     97  C2  SGN B   6     -23.871  51.969  12.6970  0.00  0.00     0.000 C
ATOM     98  C3  SGN B   6     -22.919  52.023  13.8930  0.00  0.00     0.000 C
ATOM     99  C4  SGN B   6     -23.068  53.434  14.5290  0.00  0.00     0.000 C
ATOM    100  C5  SGN B   6     -24.551  53.565  14.9800  0.00  0.00     0.000 C
ATOM    101  O5  SGN B   6     -25.446  53.352  13.8920  0.00  0.00     0.000 O
BRANCH 97 104
ATOM    102   N  SGN B   6     -23.769  52.180  11.2500  0.00  0.00     0.000 N
ATOM    104  HD  SGN B   6     -24.530  52.003  10.8760  0.00  0.00     0.000 HD
ATOM    104 @NS  SGN B   6     -23.955  50.858  10.2650  0.00  0.00     0.000 S
ATOM    105   O  SGN B   6     -24.229  49.716  11.1100  0.00  0.00     0.000 OA
ATOM    106   O  SGN B   6     -25.054  51.154   9.3740  0.00  0.00     0.000 OA
ATOM    107   O  SGN B   6     -22.701  50.703   9.5620  0.00  0.00     0.000 OA
ENDBRANCH 97 104
BRANCH 100 108
ATOM    108   C  SGN B   6     -24.949  54.901  15.5960  0.00  0.00     0.000 C
ATOM    109   O  SGN B   6     -24.917  55.899  14.6060  0.00  0.00     0.000 O
ATOM    110  @S  SGN B   6     -25.254  57.419  14.8220  0.00  0.00     0.000 S
ATOM    111   O  SGN B   6     -24.671  57.778  16.0920  0.00  0.00     0.000 OA
ATOM    112   O  SGN B   6     -24.639  58.136  13.7160  0.00  0.00     0.000 OA
ATOM    113   O  SGN B   6     -26.696  57.504  14.8240  0.00  0.00     0.000 OA
ENDBRANCH 100 108
ENDBRANCH 95 99
ENDBRANCH 79 95
ENDBRANCH 78 82
ENDBRANCH 58 78
ENDBRANCH 57 61
ENDBRANCH 41 57
ENDBRANCH 40 44
ENDBRANCH 20 40
ENDBRANCH 19 23
ENDBRANCH 1 19
TORSDOF 22
ENDMDL
MODEL 4
REMARK VINA RESULT:      -2.6      4.374     10.548
ROOT
ATOM      1  C1  IDS B   1     -16.351  49.638  12.0860  0.00  0.00     0.000 C
ATOM      2  C2  IDS B   1     -16.310  48.796  10.8370  0.00  0.00     0.000 C
ATOM      3  C3  IDS B   1     -15.995  49.546   9.5210  0.00  0.00     0.000 C
ATOM      4  C4  IDS B   1     -15.114  50.836   9.7220  0.00  0.00     0.000 C
ATOM      5  C5  IDS B   1     -15.313  51.482  11.1150  0.00  0.00     0.000 C
ATOM      6  O5  IDS B   1     -15.235  50.504  12.1160  0.00  0.00     0.000 O
ATOM      7   O  IDS B   1     -17.240  49.868   8.9090  0.00  0.00     0.000 O
ATOM      9  HD  IDS B   1     -16.631  50.418   8.6320  0.00  0.00     0.000 HD
ATOM      9   O  IDS B   1     -13.762  50.453   9.6100  0.00  0.00     0.000 O
ATOM     11  HD  IDS B   1     -13.153  51.003   9.3330  0.00  0.00     0.000 HD
ENDROOT
BRANCH 2 11
ATOM     11   O  IDS B   1     -15.342  47.813  10.9690  0.00  0.00     0.000 O
ATOM     12  @S  IDS B   1     -14.985  46.789   9.8750  0.00  0.00     0.000 S
ATOM     13   O  IDS B   1     -16.202  46.675   9.0970  0.00  0.00     0.000 OA
ATOM     14   O  IDS B   1     -13.888  47.359   9.1140  0.00  0.00     0.000 OA
ATOM     15   O  IDS B   1     -14.613  45.575  10.5750  0.00  0.00     0.000 OA
ENDBRANCH 2 11
BRANCH 5 16
ATOM     16 @CA  IDS B   1     -14.393  52.649  11.4620  0.00  0.00     0.000 C
ATOM     17   O  IDS B   1     -13.834  53.311  10.5900  0.00  0.00     0.000 OA
ATOM     18   O  IDS B   1     -14.201  52.964  12.6340  0.00  0.00     0.000 OA
ENDBRANCH 5 16
BRANCH 1 19
ATOM     19  O4  SGN B   2     -17.558  50.373  12.0780  0.00  0.00     0.000 O
BRANCH 19 23
ATOM     20  C1  SGN B   2     -20.340  51.226  14.9570  0.00  0.00     0.000 C
ATOM     21  C2  SGN B   2     -18.928  51.740  15.1350  0.00  0.00     0.000 C
ATOM     22  C3  SGN B   2     -18.270  51.849  13.8070  0.00  0.00     0.000 C
ATOM     23  C4  SGN B   2     -18.213  50.428  13.2930  0.00  0.00     0.000 C
ATOM     24  C5  SGN B   2     -19.632  50.036  13.0680  0.00  0.00     0.000 C
ATOM     25  O5  SGN B   2     -20.289  49.977  14.2820  0.00  0.00     0.000 O
ATOM     26   O  SGN B   2     -16.993  52.358  13.9650  0.00  0.00     0.000 O
ATOM     28  HD  SGN B   2     -16.140  52.494  14.0320  0.00  0.00     0.000 HD
BRANCH 21 30
ATOM     28   N  SGN B   2     -19.167  52.967  15.8380  0.00  0.00     0.000 N
ATOM     30  HD  SGN B   2     -18.366  53.294  15.8050  0.00  0.00     0.000 HD
ATOM     30 @NS  SGN B   2     -19.067  52.918  17.4600  0.00  0.00     0.000 S
ATOM     31   O  SGN B   2     -18.594  51.636  17.8620  0.00  0.00     0.000 OA
ATOM     32   O  SGN B   2     -18.140  53.929  17.7640  0.00  0.00     0.000 OA
ATOM     33   O  SGN B   2     -20.375  53.154  17.9430  0.00  0.00     0.000 OA
ENDBRANCH 21 30
BRANCH 24 34
ATOM     34   C  SGN B   2     -19.832  48.722  12.4080  0.00  0.00     0.000 C
ATOM     35   O  SGN B   2     -20.033  48.959  11.0600  0.00  0.00     0.000 O
ATOM     36  @S  SGN B   2     -20.064  47.855  10.0090  0.00  0.00     0.000 S
ATOM     37   O  SGN B   2     -21.462  47.486   9.9200  0.00  0.00     0.000 OA
ATOM     38   O  SGN B   2     -19.538  48.428   8.7910  0.00  0.00     0.000 OA
ATOM     39   O  SGN B   2     -19.208  46.802  10.5370  0.00  0.00     0.000 OA
ENDBRANCH 24 34
BRANCH 20 40
ATOM     40  O4  IDS B   3     -21.111  52.151  14.2540  0.00  0.00     0.000 O
BRANCH 40 44
ATOM     41  C1  IDS B   3     -23.951  54.147  13.7490  0.00  0.00     0.000 C
ATOM     42  C2  IDS B   3     -23.556  53.701  15.1560  0.00  0.00     0.000 C
ATOM     43  C3  IDS B   3     -23.203  52.209  15.3070  0.00  0.00     0.000 C
ATOM     44  C4  IDS B   3     -22.420  51.712  14.1080  0.00  0.00     0.000 C
ATOM     45  C5  IDS B   3     -23.004  52.227  12.7830  0.00  0.00     0.000 C
ATOM     46  O5  IDS B   3     -23.058  53.607  12.7860  0.00  0.00     0.000 O
ATOM     47   O  IDS B   3     -24.393  51.454  15.4030  0.00  0.00     0.000 O
ATOM     49  HD  IDS B   3     -23.554  51.626  15.5270  0.00  0.00     0.000 HD
BRANCH 42 49
ATOM     49   O  IDS B   3     -22.433  54.433  15.5560  0.00  0.00     0.000 O
ATOM     50   O  IDS B   3     -23.739  56.370  15.8550  0.00  0.00     0.000 OA
ATOM     51   O  IDS B   3     -22.008  55.899  17.3980  0.00  0.00     0.000 OA
ATOM     52   O  IDS B   3     -21.490  56.514  15.1790  0.00  0.00     0.000 OA
ATOM     53  @S  IDS B   3     -22.418  55.889  16.0290  0.00  0.00     0.000 S
ENDBRANCH 42 49
BRANCH 45 54
ATOM     54 @CA  IDS B   3     -22.291  51.742  11.5230  0.00  0.00     0.000 C
ATOM     55   O  IDS B   3     -21.297  52.279  11.1150  0.00  0.00     0.000 OA
ATOM     56   O  IDS B   3     -22.684  50.803  10.9140  0.00  0.00     0.000 OA
ENDBRANCH 45 54
BRANCH 41 57
ATOM     57  O4  SGN B   4     -25.266  53.778  13.4950  0.00  0.00     0.000 O
BRANCH 57 61
ATOM     58  C1  SGN B   4     -28.028  54.185  10.4610  0.00  0.00     0.000 C
ATOM     59  C2  SGN B   4     -27.235  52.889  10.4570  0.00  0.00     0.000 C
ATOM     60  C3  SGN B   4     -26.557  52.693  11.8100  0.00  0.00     0.000 C
ATOM     61  C4  SGN B   4     -25.685  53.902  12.1710  0.00  0.00     0.000 C
ATOM     62  C5  SGN B   4     -26.550  55.154  12.0560  0.00  0.00     0.000 C
ATOM     63  O5  SGN B   4     -27.147  55.250  10.7760  0.00  0.00     0.000 O
ATOM     64   O  SGN B   4     -25.732  51.548  11.7440  0.00  0.00     0.000 O
ATOM     66  HD  SGN B   4     -24.888  51.673  11.8910  0.00  0.00     0.000 HD
BRANCH 59 68
ATOM     66   N  SGN B   4     -27.596  52.708   9.0660  0.00  0.00     0.000 N
ATOM     68  HD  SGN B   4     -27.754  53.280   9.6970  0.00  0.00     0.000 HD
ATOM     68 @NS  SGN B   4     -28.698  51.569   8.6450  0.00  0.00     0.000 S
ATOM     69   O  SGN B   4     -28.498  50.421   9.4790  0.00  0.00     0.000 OA
ATOM     70   O  SGN B   4     -29.986  52.158   8.8690  0.00  0.00     0.000 OA
ATOM     71   O  SGN B   4     -28.426  51.305   7.2650  0.00  0.00     0.000 OA
ENDBRANCH 59 68
BRANCH 62 72
ATOM     72   C  SGN B   4     -25.762  56.438  12.2680  0.00  0.00     0.000 C
ATOM     73   O  SGN B   4     -25.647  57.020  11.0040  0.00  0.00     0.000 O
ATOM     74  @S  SGN B   4     -25.574  58.519  10.6660  0.00  0.00     0.000 S
ATOM     75   O  SGN B   4     -24.457  59.053  11.3530  0.00  0.00     0.000 OA
ATOM     76   O  SGN B   4     -25.404  58.551   9.2450  0.00  0.00     0.000 OA
ATOM     77   O  SGN B   4     -26.793  59.083  11.1400  0.00  0.00     0.000 OA
ENDBRANCH 62 72
BRANCH 58 78
ATOM     78  O4  IDS B   5     -29.106  54.094  11.3700  0.00  0.00     0.000 O
BRANCH 78 82
ATOM     79  C1  IDS B   5     -32.146  53.849  13.0120  0.00  0.00     0.000 C
ATOM     80  C2  IDS B   5     -31.889  52.988  11.8130  0.00  0.00     0.000 C
ATOM     81  C3  IDS B   5     -31.369  53.756  10.6020  0.00  0.00     0.000 C
ATOM     82  C4  IDS B   5     -30.286  54.753  10.9620  0.00  0.00     0.000 C
ATOM     83  C5  IDS B   5     -30.794  55.578  12.1010  0.00  0.00     0.000 C
ATOM     84  O5  IDS B   5     -31.063  54.740  13.2100  0.00  0.00     0.000 O
ATOM     85   O  IDS B   5     -32.446  54.477  10.0550  0.00  0.00     0.000 O
ATOM     87  HD  IDS B   5     -31.670  54.772  10.3000  0.00  0.00     0.000 HD
BRANCH 80 87
ATOM     87   O  IDS B   5     -30.928  52.065  12.1450  0.00  0.00     0.000 O
ATOM     88  @S  IDS B   5     -31.107  50.549  12.2590  0.00  0.00     0.000 S
ATOM     89   O  IDS B   5     -31.683  50.153  11.0250  0.00  0.00     0.000 OA
ATOM     90   O  IDS B   5     -29.804  50.031  12.4870  0.00  0.00     0.000 OA
ATOM     91   O  IDS B   5     -31.968  50.337  13.3690  0.00  0.00     0.000 OA
ENDBRANCH 80 87
BRANCH 83 92
ATOM     92 @CA  IDS B   5     -29.891  56.753  12.4580  0.00  0.00     0.000 C
ATOM     93   O  IDS B   5     -29.091  56.677  13.3940  0.00  0.00     0.000 OA
ATOM     94   O  IDS B   5     -29.949  57.808  11.8170  0.00  0.00     0.000 OA
ENDBRANCH 83 92
BRANCH 79 95
ATOM     95  O4  SGN B   6     -33.353  54.516  12.8540  0.00  0.00     0.000 O
BRANCH 95 99
ATOM     96  C1  SGN B   6     -36.028  56.314  15.4670  0.00  0.00     0.000 C
ATOM     97  C2  SGN B   6     -34.924  57.212  14.9210  0.00  0.00     0.000 C
ATOM     98  C3  SGN B   6     -34.433  56.563  13.6270  0.00  0.00     0.000 C
ATOM     99  C4  SGN B   6     -33.808  55.192  14.0130  0.00  0.00     0.000 C
ATOM    100  C5  SGN B   6     -34.942  54.355  14.6700  0.00  0.00     0.000 C
ATOM    101  O5  SGN B   6     -35.511  55.036  15.7850  0.00  0.00     0.000 O
BRANCH 97 104
ATOM    102   N  SGN B   6     -34.422  58.176  15.9050  0.00  0.00     0.000 N
ATOM    104  HD  SGN B   6     -35.042  58.351  16.4830  0.00  0.00     0.000 HD
ATOM    104 @NS  SGN B   6     -35.148  59.666  15.9610  0.00  0.00     0.000 S
ATOM    105   O  SGN B   6     -36.212  59.673  14.9810  0.00  0.00     0.000 OA
ATOM    106   O  SGN B   6     -35.644  59.837  17.3070  0.00  0.00     0.000 OA
ATOM    107   O  SGN B   6     -34.119  60.625  15.6250  0.00  0.00     0.000 OA
ENDBRANCH 97 104
BRANCH 100 108
ATOM    108   C  SGN B   6     -34.546  52.974  15.1800  0.00  0.00     0.000 C
ATOM    109   O  SGN B   6     -34.087  53.080  16.5050  0.00  0.00     0.000 O
ATOM    110  @S  SGN B   6     -33.577  51.892  17.3990  0.00  0.00     0.000 S
ATOM    111   O  SGN B   6     -32.792  51.049  16.5280  0.00  0.00     0.000 OA
ATOM    112   O  SGN B   6     -32.773  52.488  18.4540  0.00  0.00     0.000 OA
ATOM    113   O  SGN B   6     -34.766  51.234  17.8910  0.00  0.00     0.000 OA
ENDBRANCH 100 108
ENDBRANCH 95 99
ENDBRANCH 79 95
ENDBRANCH 78 82
ENDBRANCH 58 78
ENDBRANCH 57 61
ENDBRANCH 41 57
ENDBRANCH 40 44
ENDBRANCH 20 40
ENDBRANCH 19 23
ENDBRANCH 1 19
TORSDOF 22
ENDMDL
MODEL 5
REMARK VINA RESULT:      -2.3      4.731     10.838
ROOT
ATOM      1  C1  IDS B   1     -17.088  48.833  11.5930  0.00  0.00     0.000 C
ATOM      2  C2  IDS B   1     -16.937  48.061  10.3080  0.00  0.00     0.000 C
ATOM      3  C3  IDS B   1     -16.668  48.902   9.0370  0.00  0.00     0.000 C
ATOM      4  C4  IDS B   1     -15.922  50.259   9.3220  0.00  0.00     0.000 C
ATOM      5  C5  IDS B   1     -16.213  50.814  10.7370  0.00  0.00     0.000 C
ATOM      6  O5  IDS B   1     -16.062  49.799  11.6930  0.00  0.00     0.000 O
ATOM      7   O  IDS B   1     -17.926  49.132   8.4090  0.00  0.00     0.000 O
ATOM      9  HD  IDS B   1     -17.367  49.751   8.1740  0.00  0.00     0.000 HD
ATOM      9   O  IDS B   1     -14.537  50.014   9.2270  0.00  0.00     0.000 O
ATOM     11  HD  IDS B   1     -13.979  50.633   8.9920  0.00  0.00     0.000 HD
ENDROOT
BRANCH 2 11
ATOM     11   O  IDS B   1     -15.882  47.171  10.4190  0.00  0.00     0.000 O
ATOM     12  @S  IDS B   1     -15.956  45.679  10.0420  0.00  0.00     0.000 S
ATOM     13   O  IDS B   1     -17.358  45.349  10.2050  0.00  0.00     0.000 OA
ATOM     14   O  IDS B   1     -15.517  45.576   8.6610  0.00  0.00     0.000 OA
ATOM     15   O  IDS B   1     -15.075  44.992  10.9650  0.00  0.00     0.000 OA
ENDBRANCH 2 11
BRANCH 5 16
ATOM     16 @CA  IDS B   1     -15.419  52.045  11.1630  0.00  0.00     0.000 C
ATOM     17   O  IDS B   1     -14.618  52.589  10.4070  0.00  0.00     0.000 OA
ATOM     18   O  IDS B   1     -15.577  52.534  12.2790  0.00  0.00     0.000 OA
ENDBRANCH 5 16
BRANCH 1 19
ATOM     19  O4  SGN B   2     -18.359  49.447  11.5870  0.00  0.00     0.000 O
BRANCH 19 23
ATOM     20  C1  SGN B   2     -21.281  49.781  14.4350  0.00  0.00     0.000 C
ATOM     21  C2  SGN B   2     -20.094  50.716  14.4990  0.00  0.00     0.000 C
ATOM     22  C3  SGN B   2     -19.494  50.848  13.1460  0.00  0.00     0.000 C
ATOM     23  C4  SGN B   2     -19.005  49.458  12.8090  0.00  0.00     0.000 C
ATOM     24  C5  SGN B   2     -20.237  48.630  12.6840  0.00  0.00     0.000 C
ATOM     25  O5  SGN B   2     -20.851  48.530  13.9180  0.00  0.00     0.000 O
ATOM     26   O  SGN B   2     -18.433  51.735  13.1950  0.00  0.00     0.000 O
ATOM     28  HD  SGN B   2     -17.662  52.129  13.2150  0.00  0.00     0.000 HD
BRANCH 21 30
ATOM     28   N  SGN B   2     -20.757  51.855  15.0640  0.00  0.00     0.000 N
ATOM     30  HD  SGN B   2     -20.142  52.448  14.9220  0.00  0.00     0.000 HD
ATOM     30 @NS  SGN B   2     -20.595  52.084  16.6640  0.00  0.00     0.000 S
ATOM     31   O  SGN B   2     -19.658  51.143  17.1800  0.00  0.00     0.000 OA
ATOM     32   O  SGN B   2     -20.111  53.400  16.7620  0.00  0.00     0.000 OA
ATOM     33   O  SGN B   2     -21.878  51.885  17.2250  0.00  0.00     0.000 OA
ENDBRANCH 21 30
BRANCH 24 34
ATOM     34   C  SGN B   2     -20.025  47.243  12.1980  0.00  0.00     0.000 C
ATOM     35   O  SGN B   2     -20.911  46.424  12.8740  0.00  0.00     0.000 O
ATOM     36  @S  SGN B   2     -21.153  44.964  12.5070  0.00  0.00     0.000 S
ATOM     37   O  SGN B   2     -20.206  44.230  13.3220  0.00  0.00     0.000 OA
ATOM     38   O  SGN B   2     -22.533  44.680  12.8250  0.00  0.00     0.000 OA
ATOM     39   O  SGN B   2     -20.889  44.882  11.0780  0.00  0.00     0.000 OA
ENDBRANCH 24 34
BRANCH 20 40
ATOM     40  O4  IDS B   3     -22.294  50.332  13.6500  0.00  0.00     0.000 O
BRANCH 40 44
ATOM     41  C1  IDS B   3     -25.406  51.688  12.7640  0.00  0.00     0.000 C
ATOM     42  C2  IDS B   3     -24.728  52.092  14.0720  0.00  0.00     0.000 C
ATOM     43  C3  IDS B   3     -24.171  50.931  14.9200  0.00  0.00     0.000 C
ATOM     44  C4  IDS B   3     -23.544  49.869  14.0390  0.00  0.00     0.000 C
ATOM     45  C5  IDS B   3     -24.402  49.564  12.8010  0.00  0.00     0.000 C
ATOM     46  O5  IDS B   3     -24.627  50.719  12.0770  0.00  0.00     0.000 O
ATOM     47   O  IDS B   3     -25.224  50.337  15.6500  0.00  0.00     0.000 O
ATOM     49  HD  IDS B   3     -24.404  50.561  15.4840  0.00  0.00     0.000 HD
BRANCH 42 49
ATOM     49   O  IDS B   3     -23.654  52.937  13.7740  0.00  0.00     0.000 O
ATOM     50   O  IDS B   3     -24.876  54.822  14.4830  0.00  0.00     0.000 OA
ATOM     51   O  IDS B   3     -22.567  54.690  14.9880  0.00  0.00     0.000 OA
ATOM     52   O  IDS B   3     -23.284  54.984  12.7580  0.00  0.00     0.000 OA
ATOM     53  @S  IDS B   3     -23.591  54.447  14.0200  0.00  0.00     0.000 S
ENDBRANCH 42 49
BRANCH 45 54
ATOM     54 @CA  IDS B   3     -23.856  48.477  11.8780  0.00  0.00     0.000 C
ATOM     55   O  IDS B   3     -23.099  48.733  10.9810  0.00  0.00     0.000 OA
ATOM     56   O  IDS B   3     -24.144  47.336  12.0310  0.00  0.00     0.000 OA
ENDBRANCH 45 54
BRANCH 41 57
ATOM     57  O4  SGN B   4     -26.688  51.223  13.0280  0.00  0.00     0.000 O
BRANCH 57 61
ATOM     58  C1  SGN B   4     -30.112  50.733  10.7840  0.00  0.00     0.000 C
ATOM     59  C2  SGN B   4     -29.431  49.450  11.2300  0.00  0.00     0.000 C
ATOM     60  C3  SGN B   4     -28.438  49.754  12.3490  0.00  0.00     0.000 C
ATOM     61  C4  SGN B   4     -27.428  50.823  11.9160  0.00  0.00     0.000 C
ATOM     62  C5  SGN B   4     -28.213  52.027  11.4030  0.00  0.00     0.000 C
ATOM     63  O5  SGN B   4     -29.115  51.655  10.3780  0.00  0.00     0.000 O
ATOM     64   O  SGN B   4     -27.733  48.571  12.6640  0.00  0.00     0.000 O
ATOM     66  HD  SGN B   4     -26.873  48.597  12.5620  0.00  0.00     0.000 HD
BRANCH 59 68
ATOM     66   N  SGN B   4     -29.919  48.418  10.3380  0.00  0.00     0.000 N
ATOM     68  HD  SGN B   4     -29.809  49.277  10.3210  0.00  0.00     0.000 HD
ATOM     68 @NS  SGN B   4     -31.395  47.749  10.5870  0.00  0.00     0.000 S
ATOM     69   O  SGN B   4     -31.595  47.615  12.0000  0.00  0.00     0.000 OA
ATOM     70   O  SGN B   4     -32.346  48.653  10.0090  0.00  0.00     0.000 OA
ATOM     71   O  SGN B   4     -31.329  46.486   9.9160  0.00  0.00     0.000 OA
ENDBRANCH 59 68
BRANCH 62 72
ATOM     72   C  SGN B   4     -27.318  53.113  10.8240  0.00  0.00     0.000 C
ATOM     73   O  SGN B   4     -27.059  52.722   9.5080  0.00  0.00     0.000 O
ATOM     74  @S  SGN B   4     -26.816  53.633   8.2920  0.00  0.00     0.000 S
ATOM     75   O  SGN B   4     -25.700  54.451   8.5940  0.00  0.00     0.000 OA
ATOM     76   O  SGN B   4     -26.547  52.722   7.2200  0.00  0.00     0.000 OA
ATOM     77   O  SGN B   4     -28.002  54.406   8.1420  0.00  0.00     0.000 OA
ENDBRANCH 62 72
BRANCH 58 78
ATOM     78  O4  IDS B   5     -30.921  51.242  11.8250  0.00  0.00     0.000 O
BRANCH 78 82
ATOM     79  C1  IDS B   5     -33.202  52.762  13.9440  0.00  0.00     0.000 C
ATOM     80  C2  IDS B   5     -33.383  51.318  13.5860  0.00  0.00     0.000 C
ATOM     81  C3  IDS B   5     -33.312  51.041  12.0860  0.00  0.00     0.000 C
ATOM     82  C4  IDS B   5     -32.165  51.766  11.4120  0.00  0.00     0.000 C
ATOM     83  C5  IDS B   5     -32.240  53.204  11.8160  0.00  0.00     0.000 C
ATOM     84  O5  IDS B   5     -32.112  53.307  13.2220  0.00  0.00     0.000 O
ATOM     85   O  IDS B   5     -34.508  51.503  11.5070  0.00  0.00     0.000 O
ATOM     87  HD  IDS B   5     -33.693  51.696  11.2870  0.00  0.00     0.000 HD
BRANCH 80 87
ATOM     87   O  IDS B   5     -32.373  50.599  14.1740  0.00  0.00     0.000 O
ATOM     88  @S  IDS B   5     -32.522  49.431  15.1530  0.00  0.00     0.000 S
ATOM     89   O  IDS B   5     -33.387  48.515  14.5020  0.00  0.00     0.000 OA
ATOM     90   O  IDS B   5     -31.204  48.943  15.3620  0.00  0.00     0.000 OA
ATOM     91   O  IDS B   5     -33.082  49.981  16.3380  0.00  0.00     0.000 OA
ENDBRANCH 80 87
BRANCH 83 92
ATOM     92 @CA  IDS B   5     -31.262  54.103  11.0700  0.00  0.00     0.000 C
ATOM     93   O  IDS B   5     -30.551  54.908  11.6760  0.00  0.00     0.000 OA
ATOM     94   O  IDS B   5     -31.167  54.044   9.8380  0.00  0.00     0.000 OA
ENDBRANCH 83 92
BRANCH 79 95
ATOM     95  O4  SGN B   6     -34.385  53.450  13.7090  0.00  0.00     0.000 O
BRANCH 95 99
ATOM     96  C1  SGN B   6     -36.036  57.057  14.9240  0.00  0.00     0.000 C
ATOM     97  C2  SGN B   6     -34.826  57.155  14.0030  0.00  0.00     0.000 C
ATOM     98  C3  SGN B   6     -34.735  55.822  13.2590  0.00  0.00     0.000 C
ATOM     99  C4  SGN B   6     -34.455  54.724  14.3250  0.00  0.00     0.000 C
ATOM    100  C5  SGN B   6     -35.660  54.742  15.3080  0.00  0.00     0.000 C
ATOM    101  O5  SGN B   6     -35.845  56.033  15.8810  0.00  0.00     0.000 O
BRANCH 97 104
ATOM    102   N  SGN B   6     -33.933  58.271  14.3280  0.00  0.00     0.000 N
ATOM    104  HD  SGN B   6     -34.383  58.900  14.7180  0.00  0.00     0.000 HD
ATOM    104 @NS  SGN B   6     -34.212  59.723  13.5750  0.00  0.00     0.000 S
ATOM    105   O  SGN B   6     -35.376  59.563  12.7310  0.00  0.00     0.000 OA
ATOM    106   O  SGN B   6     -34.423  60.699  14.6180  0.00  0.00     0.000 OA
ATOM    107   O  SGN B   6     -33.029  60.000  12.7910  0.00  0.00     0.000 OA
ENDBRANCH 97 104
BRANCH 100 108
ATOM    108   C  SGN B   6     -35.582  53.770  16.4800  0.00  0.00     0.000 C
ATOM    109   O  SGN B   6     -34.394  53.997  17.1970  0.00  0.00     0.000 O
ATOM    110  @S  SGN B   6     -33.924  53.208  18.4720  0.00  0.00     0.000 S
ATOM    111   O  SGN B   6     -34.254  51.825  18.2260  0.00  0.00     0.000 OA
ATOM    112   O  SGN B   6     -32.489  53.419  18.5800  0.00  0.00     0.000 OA
ATOM    113   O  SGN B   6     -34.666  53.772  19.5770  0.00  0.00     0.000 OA
ENDBRANCH 100 108
ENDBRANCH 95 99
ENDBRANCH 79 95
ENDBRANCH 78 82
ENDBRANCH 58 78
ENDBRANCH 57 61
ENDBRANCH 41 57
ENDBRANCH 40 44
ENDBRANCH 20 40
ENDBRANCH 19 23
ENDBRANCH 1 19
TORSDOF 22
ENDMDL
MODEL 6
REMARK VINA RESULT:      -2.0      2.237      8.306
ROOT
ATOM      1  C1  IDS B   1     -25.596  54.611  11.2900  0.00  0.00     0.000 C
ATOM      2  C2  IDS B   1     -24.577  55.720  11.3360  0.00  0.00     0.000 C
ATOM      3  C3  IDS B   1     -23.837  56.018  10.0100  0.00  0.00     0.000 C
ATOM      4  C4  IDS B   1     -24.675  55.668   8.7250  0.00  0.00     0.000 C
ATOM      5  C5  IDS B   1     -25.686  54.521   8.9650  0.00  0.00     0.000 C
ATOM      6  O5  IDS B   1     -26.409  54.755  10.1440  0.00  0.00     0.000 O
ATOM      7   O  IDS B   1     -22.613  55.290  10.0370  0.00  0.00     0.000 O
ATOM      9  HD  IDS B   1     -22.838  55.448   9.2160  0.00  0.00     0.000 HD
ATOM      9   O  IDS B   1     -25.403  56.820   8.3600  0.00  0.00     0.000 O
ATOM     11  HD  IDS B   1     -25.628  56.977   7.5390  0.00  0.00     0.000 HD
ENDROOT
BRANCH 2 11
ATOM     11   O  IDS B   1     -25.192  56.902  11.7170  0.00  0.00     0.000 O
ATOM     12  @S  IDS B   1     -24.439  58.183  12.1260  0.00  0.00     0.000 S
ATOM     13   O  IDS B   1     -23.169  57.695  12.6230  0.00  0.00     0.000 OA
ATOM     14   O  IDS B   1     -24.296  58.984  10.9230  0.00  0.00     0.000 OA
ATOM     15   O  IDS B   1     -25.263  58.822  13.1320  0.00  0.00     0.000 OA
ENDBRANCH 2 11
BRANCH 5 16
ATOM     16 @CA  IDS B   1     -26.649  54.210   7.8240  0.00  0.00     0.000 C
ATOM     17   O  IDS B   1     -27.068  55.090   7.0750  0.00  0.00     0.000 OA
ATOM     18   O  IDS B   1     -27.020  53.057   7.6180  0.00  0.00     0.000 OA
ENDBRANCH 5 16
BRANCH 1 19
ATOM     19  O4  SGN B   2     -24.902  53.381  11.2640  0.00  0.00     0.000 O
BRANCH 19 23
ATOM     20  C1  SGN B   2     -25.779  49.759  12.9580  0.00  0.00     0.000 C
ATOM     21  C2  SGN B   2     -26.237  50.029  11.5420  0.00  0.00     0.000 C
ATOM     22  C3  SGN B   2     -25.369  51.068  10.9310  0.00  0.00     0.000 C
ATOM     23  C4  SGN B   2     -25.608  52.304  11.7670  0.00  0.00     0.000 C
ATOM     24  C5  SGN B   2     -25.055  51.981  13.1110  0.00  0.00     0.000 C
ATOM     25  O5  SGN B   2     -25.809  50.977  13.6880  0.00  0.00     0.000 O
ATOM     26   O  SGN B   2     -25.761  51.286   9.6220  0.00  0.00     0.000 O
ATOM     28  HD  SGN B   2     -26.083  51.585   8.8750  0.00  0.00     0.000 HD
BRANCH 21 30
ATOM     28   N  SGN B   2     -26.345  48.903  10.6610  0.00  0.00     0.000 N
ATOM     30  HD  SGN B   2     -26.833  49.266  10.0450  0.00  0.00     0.000 HD
ATOM     30 @NS  SGN B   2     -27.538  47.841  10.9650  0.00  0.00     0.000 S
ATOM     31   O  SGN B   2     -28.364  48.350  12.0080  0.00  0.00     0.000 OA
ATOM     32   O  SGN B   2     -28.232  47.767   9.7460  0.00  0.00     0.000 OA
ATOM     33   O  SGN B   2     -26.906  46.638  11.3570  0.00  0.00     0.000 OA
ENDBRANCH 21 30
BRANCH 24 34
ATOM     34   C  SGN B   2     -25.030  53.107  14.0770  0.00  0.00     0.000 C
ATOM     35   O  SGN B   2     -23.707  53.465  14.2670  0.00  0.00     0.000 O
ATOM     36  @S  SGN B   2     -23.275  54.718  15.0210  0.00  0.00     0.000 S
ATOM     37   O  SGN B   2     -23.113  54.271  16.3900  0.00  0.00     0.000 OA
ATOM     38   O  SGN B   2     -22.046  55.167  14.4090  0.00  0.00     0.000 OA
ATOM     39   O  SGN B   2     -24.362  55.669  14.8350  0.00  0.00     0.000 OA
ENDBRANCH 24 34
BRANCH 20 40
ATOM     40  O4  IDS B   3     -24.501  49.199  12.9600  0.00  0.00     0.000 O
BRANCH 40 44
ATOM     41  C1  IDS B   3     -21.960  46.841  13.4940  0.00  0.00     0.000 C
ATOM     42  C2  IDS B   3     -23.352  46.394  13.0520  0.00  0.00     0.000 C
ATOM     43  C3  IDS B   3     -24.529  47.021  13.8240  0.00  0.00     0.000 C
ATOM     44  C4  IDS B   3     -24.264  48.483  14.1250  0.00  0.00     0.000 C
ATOM     45  C5  IDS B   3     -22.824  48.721  14.6070  0.00  0.00     0.000 C
ATOM     46  O5  IDS B   3     -21.922  48.249  13.6730  0.00  0.00     0.000 O
ATOM     47   O  IDS B   3     -24.701  46.340  15.0490  0.00  0.00     0.000 O
ATOM     49  HD  IDS B   3     -24.945  46.814  14.3670  0.00  0.00     0.000 HD
BRANCH 42 49
ATOM     49   O  IDS B   3     -23.519  46.728  11.7040  0.00  0.00     0.000 O
ATOM     50   O  IDS B   3     -22.226  44.877  11.0340  0.00  0.00     0.000 OA
ATOM     51   O  IDS B   3     -24.141  45.462   9.7710  0.00  0.00     0.000 OA
ATOM     52   O  IDS B   3     -22.243  46.865   9.7770  0.00  0.00     0.000 OA
ATOM     53  @S  IDS B   3     -23.005  45.933  10.5000  0.00  0.00     0.000 S
ENDBRANCH 42 49
BRANCH 45 54
ATOM     54 @CA  IDS B   3     -22.485  50.166  14.9650  0.00  0.00     0.000 C
ATOM     55   O  IDS B   3     -21.950  50.901  14.1800  0.00  0.00     0.000 OA
ATOM     56   O  IDS B   3     -22.761  50.619  16.0260  0.00  0.00     0.000 OA
ENDBRANCH 45 54
BRANCH 41 57
ATOM     57  O4  SGN B   4     -21.600  46.166  14.6540  0.00  0.00     0.000 O
BRANCH 57 61
ATOM     58  C1  SGN B   4     -17.691  47.456  14.8760  0.00  0.00     0.000 C
ATOM     59  C2  SGN B   4     -17.979  46.418  13.8050  0.00  0.00     0.000 C
ATOM     60  C3  SGN B   4     -19.484  46.323  13.5680  0.00  0.00     0.000 C
ATOM     61  C4  SGN B   4     -20.231  46.027  14.8740  0.00  0.00     0.000 C
ATOM     62  C5  SGN B   4     -19.802  47.068  15.9040  0.00  0.00     0.000 C
ATOM     63  O5  SGN B   4     -18.395  47.096  16.0530  0.00  0.00     0.000 O
ATOM     64   O  SGN B   4     -19.736  45.272  12.6590  0.00  0.00     0.000 O
ATOM     66  HD  SGN B   4     -20.237  44.626  12.9460  0.00  0.00     0.000 HD
BRANCH 59 68
ATOM     66   N  SGN B   4     -16.759  45.774  13.3620  0.00  0.00     0.000 N
ATOM     68  HD  SGN B   4     -17.081  46.093  14.1000  0.00  0.00     0.000 HD
ATOM     68 @NS  SGN B   4     -15.666  46.612  12.4730  0.00  0.00     0.000 S
ATOM     69   O  SGN B   4     -16.380  47.470  11.5730  0.00  0.00     0.000 OA
ATOM     70   O  SGN B   4     -14.887  47.371  13.4090  0.00  0.00     0.000 OA
ATOM     71   O  SGN B   4     -14.912  45.602  11.7930  0.00  0.00     0.000 OA
ENDBRANCH 59 68
BRANCH 62 72
ATOM     72   C  SGN B   4     -20.381  46.805  17.2860  0.00  0.00     0.000 C
ATOM     73   O  SGN B   4     -21.655  47.377  17.2730  0.00  0.00     0.000 O
ATOM     74  @S  SGN B   4     -22.901  46.906  18.0440  0.00  0.00     0.000 S
ATOM     75   O  SGN B   4     -22.574  46.917  19.4220  0.00  0.00     0.000 OA
ATOM     76   O  SGN B   4     -23.904  47.874  17.7160  0.00  0.00     0.000 OA
ATOM     77   O  SGN B   4     -23.166  45.585  17.5840  0.00  0.00     0.000 OA
ENDBRANCH 62 72
BRANCH 58 78
ATOM     78  O4  IDS B   5     -18.043  48.744  14.4140  0.00  0.00     0.000 O
BRANCH 78 82
ATOM     79  C1  IDS B   5     -18.487  52.090  13.6340  0.00  0.00     0.000 C
ATOM     80  C2  IDS B   5     -17.630  51.239  12.7480  0.00  0.00     0.000 C
ATOM     81  C3  IDS B   5     -16.577  50.430  13.5010  0.00  0.00     0.000 C
ATOM     82  C4  IDS B   5     -17.129  49.767  14.7460  0.00  0.00     0.000 C
ATOM     83  C5  IDS B   5     -17.846  50.816  15.5340  0.00  0.00     0.000 C
ATOM     84  O5  IDS B   5     -18.908  51.345  14.7630  0.00  0.00     0.000 O
ATOM     85   O  IDS B   5     -15.561  51.317  13.9040  0.00  0.00     0.000 O
ATOM     87  HD  IDS B   5     -16.017  50.762  14.3890  0.00  0.00     0.000 HD
BRANCH 80 87
ATOM     87   O  IDS B   5     -18.440  50.338  12.1020  0.00  0.00     0.000 O
ATOM     88  @S  IDS B   5     -18.793  50.318  10.6130  0.00  0.00     0.000 S
ATOM     89   O  IDS B   5     -17.546  50.342   9.9390  0.00  0.00     0.000 OA
ATOM     90   O  IDS B   5     -19.540  49.126  10.4180  0.00  0.00     0.000 OA
ATOM     91   O  IDS B   5     -19.575  51.482  10.3790  0.00  0.00     0.000 OA
ENDBRANCH 80 87
BRANCH 83 92
ATOM     92 @CA  IDS B   5     -18.299  50.346  16.9120  0.00  0.00     0.000 C
ATOM     93   O  IDS B   5     -19.476  50.457  17.2650  0.00  0.00     0.000 OA
ATOM     94   O  IDS B   5     -17.491  49.847  17.7030  0.00  0.00     0.000 OA
ENDBRANCH 83 92
BRANCH 79 95
ATOM     95  O4  SGN B   6     -17.790  53.236  13.9910  0.00  0.00     0.000 O
BRANCH 95 99
ATOM     96  C1  SGN B   6     -18.725  56.844  15.8130  0.00  0.00     0.000 C
ATOM     97  C2  SGN B   6     -19.237  55.592  16.5140  0.00  0.00     0.000 C
ATOM     98  C3  SGN B   6     -18.357  54.435  16.0390  0.00  0.00     0.000 C
ATOM     99  C4  SGN B   6     -18.597  54.278  14.5100  0.00  0.00     0.000 C
ATOM    100  C5  SGN B   6     -18.171  55.621  13.8520  0.00  0.00     0.000 C
ATOM    101  O5  SGN B   6     -18.879  56.723  14.4120  0.00  0.00     0.000 O
BRANCH 97 104
ATOM    102   N  SGN B   6     -19.856  56.676  17.2830  0.00  0.00     0.000 N
ATOM    104  HD  SGN B   6     -19.460  56.751  18.0500  0.00  0.00     0.000 HD
ATOM    104 @NS  SGN B   6     -20.630  56.272  18.6940  0.00  0.00     0.000 S
ATOM    105   O  SGN B   6     -20.484  54.845  18.8820  0.00  0.00     0.000 OA
ATOM    106   O  SGN B   6     -19.997  57.029  19.7480  0.00  0.00     0.000 OA
ATOM    107   O  SGN B   6     -22.017  56.637  18.5070  0.00  0.00     0.000 OA
ENDBRANCH 97 104
BRANCH 100 108
ATOM    108   C  SGN B   6     -18.366  55.720  12.3430  0.00  0.00     0.000 C
ATOM    109   O  SGN B   6     -19.078  56.894  12.0410  0.00  0.00     0.000 O
ATOM    110  @S  SGN B   6     -19.495  57.372  10.6030  0.00  0.00     0.000 S
ATOM    111   O  SGN B   6     -19.914  56.185   9.8970  0.00  0.00     0.000 OA
ATOM    112   O  SGN B   6     -20.587  58.316  10.7850  0.00  0.00     0.000 OA
ATOM    113   O  SGN B   6     -18.311  57.974  10.0320  0.00  0.00     0.000 OA
ENDBRANCH 100 108
ENDBRANCH 95 99
ENDBRANCH 79 95
ENDBRANCH 78 82
ENDBRANCH 58 78
ENDBRANCH 57 61
ENDBRANCH 41 57
ENDBRANCH 40 44
ENDBRANCH 20 40
ENDBRANCH 19 23
ENDBRANCH 1 19
TORSDOF 22
ENDMDL
MODEL 7
REMARK VINA RESULT:      -1.8      2.345      8.331
ROOT
ATOM      1  C1  IDS B   1     -26.524  53.490  11.4560  0.00  0.00     0.000 C
ATOM      2  C2  IDS B   1     -25.716  54.697  11.8520  0.00  0.00     0.000 C
ATOM      3  C3  IDS B   1     -24.694  55.206  10.8070  0.00  0.00     0.000 C
ATOM      4  C4  IDS B   1     -25.100  54.888   9.3190  0.00  0.00     0.000 C
ATOM      5  C5  IDS B   1     -25.972  53.615   9.1970  0.00  0.00     0.000 C
ATOM      6  O5  IDS B   1     -27.011  53.651  10.1390  0.00  0.00     0.000 O
ATOM      7   O  IDS B   1     -23.435  54.623  11.1290  0.00  0.00     0.000 O
ATOM      9  HD  IDS B   1     -23.451  54.833  10.2890  0.00  0.00     0.000 HD
ATOM      9   O  IDS B   1     -25.853  55.979   8.8380  0.00  0.00     0.000 O
ATOM     11  HD  IDS B   1     -25.869  56.189   7.9980  0.00  0.00     0.000 HD
ENDROOT
BRANCH 2 11
ATOM     11   O  IDS B   1     -26.565  55.760  12.1190  0.00  0.00     0.000 O
ATOM     12  @S  IDS B   1     -26.095  57.179  12.4910  0.00  0.00     0.000 S
ATOM     13   O  IDS B   1     -24.796  56.967  13.0960  0.00  0.00     0.000 OA
ATOM     14   O  IDS B   1     -26.017  57.930  11.2510  0.00  0.00     0.000 OA
ATOM     15   O  IDS B   1     -27.095  57.700  13.4030  0.00  0.00     0.000 OA
ENDBRANCH 2 11
BRANCH 5 16
ATOM     16 @CA  IDS B   1     -26.541  53.308   7.8150  0.00  0.00     0.000 C
ATOM     17   O  IDS B   1     -26.155  53.904   6.8120  0.00  0.00     0.000 OA
ATOM     18   O  IDS B   1     -27.398  52.439   7.6730  0.00  0.00     0.000 OA
ENDBRANCH 5 16
BRANCH 1 19
ATOM     19  O4  SGN B   2     -25.687  52.355  11.5480  0.00  0.00     0.000 O
BRANCH 19 23
ATOM     20  C1  SGN B   2     -26.312  48.562  12.9550  0.00  0.00     0.000 C
ATOM     21  C2  SGN B   2     -26.818  48.917  11.5740  0.00  0.00     0.000 C
ATOM     22  C3  SGN B   2     -26.025  50.053  11.0350  0.00  0.00     0.000 C
ATOM     23  C4  SGN B   2     -26.318  51.201  11.9740  0.00  0.00     0.000 C
ATOM     24  C5  SGN B   2     -25.716  50.803  13.2770  0.00  0.00     0.000 C
ATOM     25  O5  SGN B   2     -26.397  49.713  13.7830  0.00  0.00     0.000 O
ATOM     26   O  SGN B   2     -26.460  50.352   9.7550  0.00  0.00     0.000 O
ATOM     28  HD  SGN B   2     -26.815  50.690   9.0410  0.00  0.00     0.000 HD
BRANCH 21 30
ATOM     28   N  SGN B   2     -28.010  48.124  11.6430  0.00  0.00     0.000 N
ATOM     30  HD  SGN B   2     -27.843  47.701  12.3800  0.00  0.00     0.000 HD
ATOM     30 @NS  SGN B   2     -28.002  46.710  10.8430  0.00  0.00     0.000 S
ATOM     31   O  SGN B   2     -26.693  46.468  10.3340  0.00  0.00     0.000 OA
ATOM     32   O  SGN B   2     -28.354  45.771  11.8270  0.00  0.00     0.000 OA
ATOM     33   O  SGN B   2     -28.941  46.843   9.7940  0.00  0.00     0.000 OA
ENDBRANCH 21 30
BRANCH 24 34
ATOM     34   C  SGN B   2     -25.735  51.848  14.3310  0.00  0.00     0.000 C
ATOM     35   O  SGN B   2     -24.486  52.441  14.3530  0.00  0.00     0.000 O
ATOM     36  @S  SGN B   2     -24.168  53.702  15.1490  0.00  0.00     0.000 S
ATOM     37   O  SGN B   2     -23.703  53.206  16.4290  0.00  0.00     0.000 OA
ATOM     38   O  SGN B   2     -23.159  54.420  14.4060  0.00  0.00     0.000 OA
ATOM     39   O  SGN B   2     -25.424  54.434  15.2220  0.00  0.00     0.000 OA
ENDBRANCH 24 34
BRANCH 20 40
ATOM     40  O4  IDS B   3     -25.005  48.081  12.8880  0.00  0.00     0.000 O
BRANCH 40 44
ATOM     41  C1  IDS B   3     -22.176  46.035  13.2190  0.00  0.00     0.000 C
ATOM     42  C2  IDS B   3     -23.452  45.495  12.5750  0.00  0.00     0.000 C
ATOM     43  C3  IDS B   3     -24.759  45.794  13.3350  0.00  0.00     0.000 C
ATOM     44  C4  IDS B   3     -24.739  47.192  13.9200  0.00  0.00     0.000 C
ATOM     45  C5  IDS B   3     -23.387  47.527  14.5690  0.00  0.00     0.000 C
ATOM     46  O5  IDS B   3     -22.364  47.373  13.6540  0.00  0.00     0.000 O
ATOM     47   O  IDS B   3     -24.905  44.872  14.3950  0.00  0.00     0.000 O
ATOM     49  HD  IDS B   3     -25.173  45.431  13.7900  0.00  0.00     0.000 HD
BRANCH 42 49
ATOM     49   O  IDS B   3     -23.579  46.058  11.3000  0.00  0.00     0.000 O
ATOM     50   O  IDS B   3     -21.781  44.765  10.4970  0.00  0.00     0.000 OA
ATOM     51   O  IDS B   3     -23.659  45.120   9.1000  0.00  0.00     0.000 OA
ATOM     52   O  IDS B   3     -22.216  46.910   9.6340  0.00  0.00     0.000 OA
ATOM     53  @S  IDS B   3     -22.763  45.687  10.0590  0.00  0.00     0.000 S
ENDBRANCH 42 49
BRANCH 45 54
ATOM     54 @CA  IDS B   3     -23.296  48.909  15.2140  0.00  0.00     0.000 C
ATOM     55   O  IDS B   3     -22.733  49.822  14.6720  0.00  0.00     0.000 OA
ATOM     56   O  IDS B   3     -23.798  49.133  16.2650  0.00  0.00     0.000 OA
ENDBRANCH 45 54
BRANCH 41 57
ATOM     57  O4  SGN B   4     -21.795  45.203  14.2650  0.00  0.00     0.000 O
BRANCH 57 61
ATOM     58  C1  SGN B   4     -18.006  46.808  14.5360  0.00  0.00     0.000 C
ATOM     59  C2  SGN B   4     -18.158  45.641  13.5750  0.00  0.00     0.000 C
ATOM     60  C3  SGN B   4     -19.635  45.405  13.2760  0.00  0.00     0.000 C
ATOM     61  C4  SGN B   4     -20.434  45.195  14.5680  0.00  0.00     0.000 C
ATOM     62  C5  SGN B   4     -20.141  46.371  15.4950  0.00  0.00     0.000 C
ATOM     63  O5  SGN B   4     -18.750  46.523  15.7090  0.00  0.00     0.000 O
ATOM     64   O  SGN B   4     -19.759  44.246  12.4780  0.00  0.00     0.000 O
ATOM     66  HD  SGN B   4     -20.228  43.598  12.8100  0.00  0.00     0.000 HD
BRANCH 59 68
ATOM     66   N  SGN B   4     -16.869  45.052  13.2730  0.00  0.00     0.000 N
ATOM     68  HD  SGN B   4     -17.257  45.426  13.9510  0.00  0.00     0.000 HD
ATOM     68 @NS  SGN B   4     -15.790  45.868  12.3460  0.00  0.00     0.000 S
ATOM     69   O  SGN B   4     -16.512  46.556  11.3160  0.00  0.00     0.000 OA
ATOM     70   O  SGN B   4     -15.128  46.790  13.2230  0.00  0.00     0.000 OA
ATOM     71   O  SGN B   4     -14.925  44.851  11.8310  0.00  0.00     0.000 OA
ENDBRANCH 59 68
BRANCH 62 72
ATOM     72   C  SGN B   4     -20.779  46.215  16.8670  0.00  0.00     0.000 C
ATOM     73   O  SGN B   4     -19.740  46.385  17.7850  0.00  0.00     0.000 O
ATOM     74  @S  SGN B   4     -19.831  46.976  19.2030  0.00  0.00     0.000 S
ATOM     75   O  SGN B   4     -20.757  46.189  19.9300  0.00  0.00     0.000 OA
ATOM     76   O  SGN B   4     -18.499  46.861  19.7170  0.00  0.00     0.000 OA
ATOM     77   O  SGN B   4     -20.299  48.310  19.0380  0.00  0.00     0.000 OA
ENDBRANCH 62 72
BRANCH 58 78
ATOM     78  O4  IDS B   5     -18.422  48.007  13.9160  0.00  0.00     0.000 O
BRANCH 78 82
ATOM     79  C1  IDS B   5     -18.968  51.171  12.6150  0.00  0.00     0.000 C
ATOM     80  C2  IDS B   5     -17.983  50.263  11.9440  0.00  0.00     0.000 C
ATOM     81  C3  IDS B   5     -16.967  49.642  12.8990  0.00  0.00     0.000 C
ATOM     82  C4  IDS B   5     -17.602  49.126  14.1740  0.00  0.00     0.000 C
ATOM     83  C5  IDS B   5     -18.448  50.225  14.7320  0.00  0.00     0.000 C
ATOM     84  O5  IDS B   5     -19.456  50.566  13.7990  0.00  0.00     0.000 O
ATOM     85   O  IDS B   5     -16.045  50.644  13.2560  0.00  0.00     0.000 O
ATOM     87  HD  IDS B   5     -16.515  50.134  13.7740  0.00  0.00     0.000 HD
BRANCH 80 87
ATOM     87   O  IDS B   5     -18.677  49.227  11.3690  0.00  0.00     0.000 O
ATOM     88  @S  IDS B   5     -19.018  49.058   9.8860  0.00  0.00     0.000 S
ATOM     89   O  IDS B   5     -17.780  49.183   9.2070  0.00  0.00     0.000 OA
ATOM     90   O  IDS B   5     -19.615  47.773   9.7810  0.00  0.00     0.000 OA
ATOM     91   O  IDS B   5     -19.934  50.099   9.5730  0.00  0.00     0.000 OA
ENDBRANCH 80 87
BRANCH 83 92
ATOM     92 @CA  IDS B   5     -19.008  49.925  16.1180  0.00  0.00     0.000 C
ATOM     93   O  IDS B   5     -18.316  49.372  16.9750  0.00  0.00     0.000 OA
ATOM     94   O  IDS B   5     -20.172  50.228  16.4050  0.00  0.00     0.000 OA
ENDBRANCH 83 92
BRANCH 79 95
ATOM     95  O4  SGN B   6     -18.373  52.401  12.8600  0.00  0.00     0.000 O
BRANCH 95 99
ATOM     96  C1  SGN B   6     -19.665  56.185  13.9660  0.00  0.00     0.000 C
ATOM     97  C2  SGN B   6     -19.837  55.090  15.0120  0.00  0.00     0.000 C
ATOM     98  C3  SGN B   6     -18.843  53.985  14.6550  0.00  0.00     0.000 C
ATOM     99  C4  SGN B   6     -19.270  53.417  13.2710  0.00  0.00     0.000 C
ATOM    100  C5  SGN B   6     -19.190  54.598  12.2620  0.00  0.00     0.000 C
ATOM    101  O5  SGN B   6     -19.995  55.696  12.6810  0.00  0.00     0.000 O
BRANCH 97 104
ATOM    102   N  SGN B   6     -20.601  56.198  15.5940  0.00  0.00     0.000 N
ATOM    104  HD  SGN B   6     -20.125  56.593  16.2000  0.00  0.00     0.000 HD
ATOM    104 @NS  SGN B   6     -21.000  56.096  17.2010  0.00  0.00     0.000 S
ATOM    105   O  SGN B   6     -20.437  54.867  17.7160  0.00  0.00     0.000 OA
ATOM    106   O  SGN B   6     -20.442  57.263  17.8430  0.00  0.00     0.000 OA
ATOM    107   O  SGN B   6     -22.445  56.074  17.2540  0.00  0.00     0.000 OA
ENDBRANCH 97 104
BRANCH 100 108
ATOM    108   C  SGN B   6     -19.616  54.287  10.8320  0.00  0.00     0.000 C
ATOM    109   O  SGN B   6     -20.322  55.383  10.3070  0.00  0.00     0.000 O
ATOM    110  @S  SGN B   6     -20.941  55.472   8.8650  0.00  0.00     0.000 S
ATOM    111   O  SGN B   6     -21.510  54.173   8.5960  0.00  0.00     0.000 OA
ATOM    112   O  SGN B   6     -21.955  56.514   8.9170  0.00  0.00     0.000 OA
ATOM    113   O  SGN B   6     -19.840  55.794   7.9850  0.00  0.00     0.000 OA
ENDBRANCH 100 108
ENDBRANCH 95 99
ENDBRANCH 79 95
ENDBRANCH 78 82
ENDBRANCH 58 78
ENDBRANCH 57 61
ENDBRANCH 41 57
ENDBRANCH 40 44
ENDBRANCH 20 40
ENDBRANCH 19 23
ENDBRANCH 1 19
TORSDOF 22
ENDMDL
MODEL 8
REMARK VINA RESULT:      -1.3      2.633      8.333
ROOT
ATOM      1  C1  IDS B   1     -27.829  51.843  11.5930  0.00  0.00     0.000 C
ATOM      2  C2  IDS B   1     -27.558  52.835  10.4920  0.00  0.00     0.000 C
ATOM      3  C3  IDS B   1     -28.164  52.498   9.1090  0.00  0.00     0.000 C
ATOM      4  C4  IDS B   1     -29.476  51.631   9.1870  0.00  0.00     0.000 C
ATOM      5  C5  IDS B   1     -29.524  50.732  10.4460  0.00  0.00     0.000 C
ATOM      6  O5  IDS B   1     -29.195  51.481  11.5850  0.00  0.00     0.000 O
ATOM      7   O  IDS B   1     -27.155  51.831   8.3560  0.00  0.00     0.000 O
ATOM      9  HD  IDS B   1     -27.935  51.613   8.0510  0.00  0.00     0.000 HD
ATOM      9   O  IDS B   1     -30.572  52.517   9.2430  0.00  0.00     0.000 O
ATOM     11  HD  IDS B   1     -31.352  52.298   8.9380  0.00  0.00     0.000 HD
ENDROOT
BRANCH 2 11
ATOM     11   O  IDS B   1     -28.060  54.076  10.8480  0.00  0.00     0.000 O
ATOM     12  @S  IDS B   1     -27.255  55.389  10.8000  0.00  0.00     0.000 S
ATOM     13   O  IDS B   1     -25.880  54.959  10.9580  0.00  0.00     0.000 OA
ATOM     14   O  IDS B   1     -27.506  55.984   9.4990  0.00  0.00     0.000 OA
ATOM     15   O  IDS B   1     -27.752  56.199  11.8940  0.00  0.00     0.000 OA
ENDBRANCH 2 11
BRANCH 5 16
ATOM     16 @CA  IDS B   1     -30.821  49.967  10.6890  0.00  0.00     0.000 C
ATOM     17   O  IDS B   1     -30.819  48.792  11.0470  0.00  0.00     0.000 OA
ATOM     18   O  IDS B   1     -31.908  50.521  10.5430  0.00  0.00     0.000 OA
ENDBRANCH 5 16
BRANCH 1 19
ATOM     19  O4  SGN B   2     -27.007  50.715  11.3770  0.00  0.00     0.000 O
BRANCH 19 23
ATOM     20  C1  SGN B   2     -25.954  47.724  13.9650  0.00  0.00     0.000 C
ATOM     21  C2  SGN B   2     -27.023  47.446  12.9310  0.00  0.00     0.000 C
ATOM     22  C3  SGN B   2     -26.849  48.372  11.7810  0.00  0.00     0.000 C
ATOM     23  C4  SGN B   2     -27.076  49.749  12.3630  0.00  0.00     0.000 C
ATOM     24  C5  SGN B   2     -25.940  49.969  13.3010  0.00  0.00     0.000 C
ATOM     25  O5  SGN B   2     -26.041  49.086  14.3580  0.00  0.00     0.000 O
ATOM     26   O  SGN B   2     -27.801  48.092  10.8160  0.00  0.00     0.000 O
ATOM     28  HD  SGN B   2     -28.479  48.078  10.2780  0.00  0.00     0.000 HD
BRANCH 21 30
ATOM     28   N  SGN B   2     -27.370  46.518  13.9670  0.00  0.00     0.000 N
ATOM     30  HD  SGN B   2     -26.572  46.263  14.1870  0.00  0.00     0.000 HD
ATOM     30 @NS  SGN B   2     -27.718  44.999  13.5090  0.00  0.00     0.000 S
ATOM     31   O  SGN B   2     -27.450  44.856  12.1180  0.00  0.00     0.000 OA
ATOM     32   O  SGN B   2     -26.851  44.213  14.2850  0.00  0.00     0.000 OA
ATOM     33   O  SGN B   2     -29.092  44.807  13.7860  0.00  0.00     0.000 OA
ENDBRANCH 21 30
BRANCH 24 34
ATOM     34   C  SGN B   2     -25.853  51.330  13.8850  0.00  0.00     0.000 C
ATOM     35   O  SGN B   2     -25.802  51.191  15.2610  0.00  0.00     0.000 O
ATOM     36  @S  SGN B   2     -25.494  52.342  16.2110  0.00  0.00     0.000 S
ATOM     37   O  SGN B   2     -26.795  52.888  16.5430  0.00  0.00     0.000 OA
ATOM     38   O  SGN B   2     -24.800  51.772  17.3420  0.00  0.00     0.000 OA
ATOM     39   O  SGN B   2     -24.651  53.252  15.4480  0.00  0.00     0.000 OA
ENDBRANCH 24 34
BRANCH 20 40
ATOM     40  O4  IDS B   3     -24.691  47.423  13.4550  0.00  0.00     0.000 O
BRANCH 40 44
ATOM     41  C1  IDS B   3     -21.294  46.596  13.1760  0.00  0.00     0.000 C
ATOM     42  C2  IDS B   3     -22.371  45.608  12.7330  0.00  0.00     0.000 C
ATOM     43  C3  IDS B   3     -23.534  45.402  13.7230  0.00  0.00     0.000 C
ATOM     44  C4  IDS B   3     -23.930  46.712  14.3740  0.00  0.00     0.000 C
ATOM     45  C5  IDS B   3     -22.707  47.540  14.7980  0.00  0.00     0.000 C
ATOM     46  O5  IDS B   3     -21.885  47.771  13.7130  0.00  0.00     0.000 O
ATOM     47   O  IDS B   3     -23.132  44.506  14.7370  0.00  0.00     0.000 O
ATOM     49  HD  IDS B   3     -23.694  44.916  14.2210  0.00  0.00     0.000 HD
BRANCH 42 49
ATOM     49   O  IDS B   3     -22.927  46.066  11.5330  0.00  0.00     0.000 O
ATOM     50   O  IDS B   3     -22.611  43.960  10.5260  0.00  0.00     0.000 OA
ATOM     51   O  IDS B   3     -24.586  45.177  10.0560  0.00  0.00     0.000 OA
ATOM     52   O  IDS B   3     -22.499  45.940   9.2610  0.00  0.00     0.000 OA
ATOM     53  @S  IDS B   3     -23.174  45.235  10.2720  0.00  0.00     0.000 S
ENDBRANCH 42 49
BRANCH 45 54
ATOM     54 @CA  IDS B   3     -23.022  48.861  15.4960  0.00  0.00     0.000 C
ATOM     55   O  IDS B   3     -23.562  48.895  16.5680  0.00  0.00     0.000 OA
ATOM     56   O  IDS B   3     -22.722  49.901  15.0100  0.00  0.00     0.000 OA
ENDBRANCH 45 54
BRANCH 41 57
ATOM     57  O4  SGN B   4     -20.448  45.983  14.0920  0.00  0.00     0.000 O
BRANCH 57 61
ATOM     58  C1  SGN B   4     -17.596  48.938  13.7240  0.00  0.00     0.000 C
ATOM     59  C2  SGN B   4     -17.374  47.701  12.8700  0.00  0.00     0.000 C
ATOM     60  C3  SGN B   4     -18.661  46.884  12.7980  0.00  0.00     0.000 C
ATOM     61  C4  SGN B   4     -19.171  46.532  14.2000  0.00  0.00     0.000 C
ATOM     62  C5  SGN B   4     -19.271  47.827  15.0000  0.00  0.00     0.000 C
ATOM     63  O5  SGN B   4     -18.039  48.524  15.0060  0.00  0.00     0.000 O
ATOM     64   O  SGN B   4     -18.399  45.684  12.1000  0.00  0.00     0.000 O
ATOM     66  HD  SGN B   4     -18.536  44.948  12.5350  0.00  0.00     0.000 HD
BRANCH 59 68
ATOM     66   N  SGN B   4     -15.959  47.945  12.6770  0.00  0.00     0.000 N
ATOM     68  HD  SGN B   4     -16.606  48.277  13.1480  0.00  0.00     0.000 HD
ATOM     68 @NS  SGN B   4     -15.432  48.679  11.3080  0.00  0.00     0.000 S
ATOM     69   O  SGN B   4     -16.224  48.206  10.2110  0.00  0.00     0.000 OA
ATOM     70   O  SGN B   4     -15.614  50.086  11.5140  0.00  0.00     0.000 OA
ATOM     71   O  SGN B   4     -14.058  48.291  11.2050  0.00  0.00     0.000 OA
ENDBRANCH 59 68
BRANCH 62 72
ATOM     72   C  SGN B   4     -19.648  47.595  16.4560  0.00  0.00     0.000 C
ATOM     73   O  SGN B   4     -18.448  47.662  17.1680  0.00  0.00     0.000 O
ATOM     74  @S  SGN B   4     -18.244  48.153  18.6120  0.00  0.00     0.000 S
ATOM     75   O  SGN B   4     -19.054  47.348  19.4510  0.00  0.00     0.000 OA
ATOM     76   O  SGN B   4     -16.847  47.955  18.8560  0.00  0.00     0.000 OA
ATOM     77   O  SGN B   4     -18.671  49.511  18.6260  0.00  0.00     0.000 OA
ENDBRANCH 62 72
BRANCH 58 78
ATOM     78  O4  IDS B   5     -18.514  49.807  13.0940  0.00  0.00     0.000 O
BRANCH 78 82
ATOM     79  C1  IDS B   5     -20.668  52.404  12.3120  0.00  0.00     0.000 C
ATOM     80  C2  IDS B   5     -19.719  51.901  11.2680  0.00  0.00     0.000 C
ATOM     81  C3  IDS B   5     -18.274  51.796  11.7480  0.00  0.00     0.000 C
ATOM     82  C4  IDS B   5     -18.158  51.173  13.1240  0.00  0.00     0.000 C
ATOM     83  C5  IDS B   5     -19.105  51.897  14.0270  0.00  0.00     0.000 C
ATOM     84  O5  IDS B   5     -20.427  51.749  13.5440  0.00  0.00     0.000 O
ATOM     85   O  IDS B   5     -17.751  53.100  11.8250  0.00  0.00     0.000 O
ATOM     87  HD  IDS B   5     -17.768  52.489  12.4380  0.00  0.00     0.000 HD
BRANCH 80 87
ATOM     87   O  IDS B   5     -20.113  50.637  10.9040  0.00  0.00     0.000 O
ATOM     88  @S  IDS B   5     -21.482  50.218  10.3650  0.00  0.00     0.000 S
ATOM     89   O  IDS B   5     -21.726  51.083   9.2670  0.00  0.00     0.000 OA
ATOM     90   O  IDS B   5     -21.346  48.849  10.0100  0.00  0.00     0.000 OA
ATOM     91   O  IDS B   5     -22.399  50.403  11.4350  0.00  0.00     0.000 OA
ENDBRANCH 80 87
BRANCH 83 92
ATOM     92 @CA  IDS B   5     -18.970  51.509  15.4950  0.00  0.00     0.000 C
ATOM     93   O  IDS B   5     -17.885  51.594  16.0770  0.00  0.00     0.000 OA
ATOM     94   O  IDS B   5     -19.948  51.097  16.1300  0.00  0.00     0.000 OA
ENDBRANCH 83 92
BRANCH 79 95
ATOM     95  O4  SGN B   6     -20.551  53.784  12.4180  0.00  0.00     0.000 O
BRANCH 95 99
ATOM     96  C1  SGN B   6     -23.027  56.924  13.5240  0.00  0.00     0.000 C
ATOM     97  C2  SGN B   6     -22.689  55.923  14.6220  0.00  0.00     0.000 C
ATOM     98  C3  SGN B   6     -21.398  55.225  14.1950  0.00  0.00     0.000 C
ATOM     99  C4  SGN B   6     -21.715  54.438  12.8920  0.00  0.00     0.000 C
ATOM    100  C5  SGN B   6     -22.166  55.488  11.8360  0.00  0.00     0.000 C
ATOM    101  O5  SGN B   6     -23.274  56.252  12.3040  0.00  0.00     0.000 O
BRANCH 97 104
ATOM    102   N  SGN B   6     -23.858  56.562  15.2350  0.00  0.00     0.000 N
ATOM    104  HD  SGN B   6     -23.608  57.265  15.6750  0.00  0.00     0.000 HD
ATOM    104 @NS  SGN B   6     -23.929  56.608  16.8920  0.00  0.00     0.000 S
ATOM    105   O  SGN B   6     -22.721  55.994  17.4000  0.00  0.00     0.000 OA
ATOM    106   O  SGN B   6     -24.033  57.999  17.2660  0.00  0.00     0.000 OA
ATOM    107   O  SGN B   6     -25.101  55.847  17.2620  0.00  0.00     0.000 OA
ENDBRANCH 97 104
BRANCH 100 108
ATOM    108   C  SGN B   6     -22.581  54.936  10.4770  0.00  0.00     0.000 C
ATOM    109   O  SGN B   6     -23.027  55.991   9.6620  0.00  0.00     0.000 O
ATOM    110  @S  SGN B   6     -23.550  55.855   8.1860  0.00  0.00     0.000 S
ATOM    111   O  SGN B   6     -24.356  54.658   8.1600  0.00  0.00     0.000 OA
ATOM    112   O  SGN B   6     -24.335  57.049   7.9160  0.00  0.00     0.000 OA
ATOM    113   O  SGN B   6     -22.368  55.752   7.3600  0.00  0.00     0.000 OA
ENDBRANCH 100 108
ENDBRANCH 95 99
ENDBRANCH 79 95
ENDBRANCH 78 82
ENDBRANCH 58 78
ENDBRANCH 57 61
ENDBRANCH 41 57
ENDBRANCH 40 44
ENDBRANCH 20 40
ENDBRANCH 19 23
ENDBRANCH 1 19
TORSDOF 22
ENDMDL
MODEL 9
REMARK VINA RESULT:      -0.9      2.496      8.649
ROOT
ATOM      1  C1  IDS B   1     -24.464  48.532  12.4330  0.00  0.00     0.000 C
ATOM      2  C2  IDS B   1     -25.488  48.544  13.5380  0.00  0.00     0.000 C
ATOM      3  C3  IDS B   1     -26.003  49.937  13.9740  0.00  0.00     0.000 C
ATOM      4  C4  IDS B   1     -25.955  51.016  12.8290  0.00  0.00     0.000 C
ATOM      5  C5  IDS B   1     -24.837  50.740  11.7940  0.00  0.00     0.000 C
ATOM      6  O5  IDS B   1     -24.873  49.397  11.3930  0.00  0.00     0.000 O
ATOM      7   O  IDS B   1     -25.222  50.344  15.0930  0.00  0.00     0.000 O
ATOM      9  HD  IDS B   1     -25.549  51.042  14.6990  0.00  0.00     0.000 HD
ATOM      9   O  IDS B   1     -27.192  50.978  12.1520  0.00  0.00     0.000 O
ATOM     11  HD  IDS B   1     -27.519  51.676  11.7580  0.00  0.00     0.000 HD
ENDROOT
BRANCH 2 11
ATOM     11   O  IDS B   1     -26.603  47.819  13.1480  0.00  0.00     0.000 O
ATOM     12  @S  IDS B   1     -27.823  47.545  14.0480  0.00  0.00     0.000 S
ATOM     13   O  IDS B   1     -27.283  47.603  15.3920  0.00  0.00     0.000 OA
ATOM     14   O  IDS B   1     -28.780  48.605  13.7860  0.00  0.00     0.000 OA
ATOM     15   O  IDS B   1     -28.313  46.236  13.6630  0.00  0.00     0.000 OA
ENDBRANCH 2 11
BRANCH 5 16
ATOM     16 @CA  IDS B   1     -24.806  51.644  10.5660  0.00  0.00     0.000 C
ATOM     17   O  IDS B   1     -24.050  51.424   9.6230  0.00  0.00     0.000 OA
ATOM     18   O  IDS B   1     -25.555  52.615  10.4880  0.00  0.00     0.000 OA
ENDBRANCH 5 16
BRANCH 1 19
ATOM     19  O4  SGN B   2     -23.229  48.948  12.9780  0.00  0.00     0.000 O
BRANCH 19 23
ATOM     20  C1  SGN B   2     -19.372  47.671  12.4760  0.00  0.00     0.000 C
ATOM     21  C2  SGN B   2     -20.139  48.159  11.2670  0.00  0.00     0.000 C
ATOM     22  C3  SGN B   2     -21.219  49.081  11.7060  0.00  0.00     0.000 C
ATOM     23  C4  SGN B   2     -22.132  48.224  12.5510  0.00  0.00     0.000 C
ATOM     24  C5  SGN B   2     -21.327  47.860  13.7510  0.00  0.00     0.000 C
ATOM     25  O5  SGN B   2     -20.280  47.043  13.3710  0.00  0.00     0.000 O
ATOM     26   O  SGN B   2     -21.895  49.560  10.5970  0.00  0.00     0.000 O
ATOM     28  HD  SGN B   2     -22.455  49.736   9.9600  0.00  0.00     0.000 HD
BRANCH 21 30
ATOM     28   N  SGN B   2     -19.719  47.306  10.1930  0.00  0.00     0.000 N
ATOM     30  HD  SGN B   2     -19.218  46.764  10.6460  0.00  0.00     0.000 HD
ATOM     30 @NS  SGN B   2     -18.419  47.781   9.3420  0.00  0.00     0.000 S
ATOM     31   O  SGN B   2     -17.845  48.928   9.9620  0.00  0.00     0.000 OA
ATOM     32   O  SGN B   2     -17.557  46.673   9.4110  0.00  0.00     0.000 OA
ATOM     33   O  SGN B   2     -18.886  48.083   8.0420  0.00  0.00     0.000 OA
ENDBRANCH 21 30
BRANCH 24 34
ATOM     34   C  SGN B   2     -22.066  47.141  14.8190  0.00  0.00     0.000 C
ATOM     35   O  SGN B   2     -22.436  48.074  15.7710  0.00  0.00     0.000 O
ATOM     36  @S  SGN B   2     -23.393  47.770  16.9180  0.00  0.00     0.000 S
ATOM     37   O  SGN B   2     -22.529  47.344  18.0000  0.00  0.00     0.000 OA
ATOM     38   O  SGN B   2     -24.109  48.993  17.1960  0.00  0.00     0.000 OA
ATOM     39   O  SGN B   2     -24.269  46.721  16.4150  0.00  0.00     0.000 OA
ENDBRANCH 24 34
BRANCH 20 40
ATOM     40  O4  IDS B   3     -18.706  48.730  13.0920  0.00  0.00     0.000 O
BRANCH 40 44
ATOM     41  C1  IDS B   3     -16.026  50.156  14.8490  0.00  0.00     0.000 C
ATOM     42  C2  IDS B   3     -15.822  48.891  14.0180  0.00  0.00     0.000 C
ATOM     43  C3  IDS B   3     -16.879  47.786  14.2170  0.00  0.00     0.000 C
ATOM     44  C4  IDS B   3     -18.265  48.382  14.3620  0.00  0.00     0.000 C
ATOM     45  C5  IDS B   3     -18.271  49.615  15.2780  0.00  0.00     0.000 C
ATOM     46  O5  IDS B   3     -17.385  50.565  14.8100  0.00  0.00     0.000 O
ATOM     47   O  IDS B   3     -16.583  47.061  15.3920  0.00  0.00     0.000 O
ATOM     49  HD  IDS B   3     -16.917  47.186  14.6020  0.00  0.00     0.000 HD
BRANCH 42 49
ATOM     49   O  IDS B   3     -15.841  49.240  12.6640  0.00  0.00     0.000 O
ATOM     50   O  IDS B   3     -13.488  49.183  12.5660  0.00  0.00     0.000 OA
ATOM     51   O  IDS B   3     -14.738  48.358  10.7320  0.00  0.00     0.000 OA
ATOM     52   O  IDS B   3     -14.724  50.667  11.2220  0.00  0.00     0.000 OA
ATOM     53  @S  IDS B   3     -14.626  49.365  11.7410  0.00  0.00     0.000 S
ENDBRANCH 42 49
BRANCH 45 54
ATOM     54 @CA  IDS B   3     -19.639  50.255  15.5040  0.00  0.00     0.000 C
ATOM     55   O  IDS B   3     -20.133  50.992  14.6930  0.00  0.00     0.000 OA
ATOM     56   O  IDS B   3     -20.272  50.028  16.4810  0.00  0.00     0.000 OA
ENDBRANCH 45 54
BRANCH 41 57
ATOM     57  O4  SGN B   4     -15.594  49.933  16.1510  0.00  0.00     0.000 O
BRANCH 57 61
ATOM     58  C1  SGN B   4     -16.054  53.873  17.2730  0.00  0.00     0.000 C
ATOM     59  C2  SGN B   4     -14.694  53.508  16.7020  0.00  0.00     0.000 C
ATOM     60  C3  SGN B   4     -14.779  52.166  15.9800  0.00  0.00     0.000 C
ATOM     61  C4  SGN B   4     -15.329  51.075  16.9060  0.00  0.00     0.000 C
ATOM     62  C5  SGN B   4     -16.645  51.578  17.4930  0.00  0.00     0.000 C
ATOM     63  O5  SGN B   4     -16.476  52.829  18.1340  0.00  0.00     0.000 O
ATOM     64   O  SGN B   4     -13.483  51.791  15.5630  0.00  0.00     0.000 O
ATOM     66  HD  SGN B   4     -13.178  51.044  15.8790  0.00  0.00     0.000 HD
BRANCH 59 68
ATOM     66   N  SGN B   4     -13.694  54.495  17.0540  0.00  0.00     0.000 N
ATOM     68  HD  SGN B   4     -14.393  54.137  17.4190  0.00  0.00     0.000 HD
ATOM     68 @NS  SGN B   4     -13.748  55.992  16.3860  0.00  0.00     0.000 S
ATOM     69   O  SGN B   4     -14.163  55.860  15.0200  0.00  0.00     0.000 OA
ATOM     70   O  SGN B   4     -14.706  56.736  17.1520  0.00  0.00     0.000 OA
ATOM     71   O  SGN B   4     -12.411  56.486  16.5130  0.00  0.00     0.000 OA
ENDBRANCH 59 68
BRANCH 62 72
ATOM     72   C  SGN B   4     -17.229  50.632  18.5310  0.00  0.00     0.000 C
ATOM     73   O  SGN B   4     -16.131  50.083  19.1970  0.00  0.00     0.000 O
ATOM     74  @S  SGN B   4     -16.058  49.629  20.6650  0.00  0.00     0.000 S
ATOM     75   O  SGN B   4     -17.056  48.642  20.8530  0.00  0.00     0.000 OA
ATOM     76   O  SGN B   4     -14.736  49.098  20.8030  0.00  0.00     0.000 OA
ATOM     77   O  SGN B   4     -16.324  50.791  21.4450  0.00  0.00     0.000 OA
ENDBRANCH 62 72
BRANCH 58 78
ATOM     78  O4  IDS B   5     -16.973  54.111  16.2260  0.00  0.00     0.000 O
BRANCH 78 82
ATOM     79  C1  IDS B   5     -19.544  55.005  14.0840  0.00  0.00     0.000 C
ATOM     80  C2  IDS B   5     -18.210  55.673  13.9460  0.00  0.00     0.000 C
ATOM     81  C3  IDS B   5     -17.654  56.215  15.2600  0.00  0.00     0.000 C
ATOM     82  C4  IDS B   5     -17.805  55.236  16.4070  0.00  0.00     0.000 C
ATOM     83  C5  IDS B   5     -19.230  54.784  16.4290  0.00  0.00     0.000 C
ATOM     84  O5  IDS B   5     -19.541  54.141  15.2070  0.00  0.00     0.000 O
ATOM     85   O  IDS B   5     -18.381  57.374  15.5900  0.00  0.00     0.000 O
ATOM     87  HD  IDS B   5     -18.240  56.670  16.0740  0.00  0.00     0.000 HD
BRANCH 80 87
ATOM     87   O  IDS B   5     -17.310  54.745  13.4830  0.00  0.00     0.000 O
ATOM     88  @S  IDS B   5     -16.663  54.702  12.0970  0.00  0.00     0.000 S
ATOM     89   O  IDS B   5     -16.093  55.989  11.9170  0.00  0.00     0.000 OA
ATOM     90   O  IDS B   5     -15.714  53.647  12.1560  0.00  0.00     0.000 OA
ATOM     91   O  IDS B   5     -17.713  54.425  11.1810  0.00  0.00     0.000 OA
ENDBRANCH 80 87
BRANCH 83 92
ATOM     92 @CA  IDS B   5     -19.586  53.937  17.6440  0.00  0.00     0.000 C
ATOM     93   O  IDS B   5     -20.285  52.927  17.5320  0.00  0.00     0.000 OA
ATOM     94   O  IDS B   5     -19.183  54.251  18.7710  0.00  0.00     0.000 OA
ENDBRANCH 83 92
BRANCH 79 95
ATOM     95  O4  SGN B   6     -20.540  55.969  14.1660  0.00  0.00     0.000 O
BRANCH 95 99
ATOM     96  C1  SGN B   6     -24.688  55.991  14.0860  0.00  0.00     0.000 C
ATOM     97  C2  SGN B   6     -24.045  55.018  15.0680  0.00  0.00     0.000 C
ATOM     98  C3  SGN B   6     -22.634  55.542  15.3410  0.00  0.00     0.000 C
ATOM     99  C4  SGN B   6     -21.855  55.472  13.9960  0.00  0.00     0.000 C
ATOM    100  C5  SGN B   6     -22.614  56.388  12.9940  0.00  0.00     0.000 C
ATOM    101  O5  SGN B   6     -23.978  55.997  12.8630  0.00  0.00     0.000 O
BRANCH 97 104
ATOM    102   N  SGN B   6     -24.943  53.860  15.0440  0.00  0.00     0.000 N
ATOM    104  HD  SGN B   6     -25.766  54.129  15.0320  0.00  0.00     0.000 HD
ATOM    104 @NS  SGN B   6     -25.940  53.633  16.3500  0.00  0.00     0.000 S
ATOM    105   O  SGN B   6     -25.710  54.723  17.2730  0.00  0.00     0.000 OA
ATOM    106   O  SGN B   6     -27.293  53.621  15.8440  0.00  0.00     0.000 OA
ATOM    107   O  SGN B   6     -25.556  52.365  16.9300  0.00  0.00     0.000 OA
ENDBRANCH 97 104
BRANCH 100 108
ATOM    108   C  SGN B   6     -22.055  56.439  11.5770  0.00  0.00     0.000 C
ATOM    109   O  SGN B   6     -23.006  55.923  10.6810  0.00  0.00     0.000 O
ATOM    110  @S  SGN B   6     -22.827  55.790   9.1250  0.00  0.00     0.000 S
ATOM    111   O  SGN B   6     -21.468  55.350   8.9190  0.00  0.00     0.000 OA
ATOM    112   O  SGN B   6     -23.796  54.799   8.6830  0.00  0.00     0.000 OA
ATOM    113   O  SGN B   6     -23.076  57.108   8.5880  0.00  0.00     0.000 OA
ENDBRANCH 100 108
ENDBRANCH 95 99
ENDBRANCH 79 95
ENDBRANCH 78 82
ENDBRANCH 58 78
ENDBRANCH 57 61
ENDBRANCH 41 57
ENDBRANCH 40 44
ENDBRANCH 20 40
ENDBRANCH 19 23
ENDBRANCH 1 19
TORSDOF 22
ENDMDL
MODEL 10
REMARK VINA RESULT:      -0.9      2.283      2.958
ROOT
ATOM      1  C1  IDS B   1     -25.920  57.304  11.5110  0.00  0.00     0.000 C
ATOM      2  C2  IDS B   1     -26.389  57.431  10.0850  0.00  0.00     0.000 C
ATOM      3  C3  IDS B   1     -27.321  56.307   9.5730  0.00  0.00     0.000 C
ATOM      4  C4  IDS B   1     -28.178  55.630  10.7070  0.00  0.00     0.000 C
ATOM      5  C5  IDS B   1     -27.484  55.679  12.0900  0.00  0.00     0.000 C
ATOM      6  O5  IDS B   1     -27.011  56.974  12.3460  0.00  0.00     0.000 O
ATOM      7   O  IDS B   1     -26.502  55.348   8.9100  0.00  0.00     0.000 O
ATOM      9  HD  IDS B   1     -27.232  54.968   9.1800  0.00  0.00     0.000 HD
ATOM      9   O  IDS B   1     -29.394  56.337  10.8060  0.00  0.00     0.000 O
ATOM     11  HD  IDS B   1     -30.123  55.957  11.0760  0.00  0.00     0.000 HD
ENDROOT
BRANCH 2 11
ATOM     11   O  IDS B   1     -27.083  58.619   9.9260  0.00  0.00     0.000 O
ATOM     12  @S  IDS B   1     -26.586  59.815   9.0910  0.00  0.00     0.000 S
ATOM     13   O  IDS B   1     -25.143  59.679   9.1160  0.00  0.00     0.000 OA
ATOM     14   O  IDS B   1     -27.138  59.651   7.7590  0.00  0.00     0.000 OA
ATOM     15   O  IDS B   1     -27.080  61.000   9.7640  0.00  0.00     0.000 OA
ENDBRANCH 2 11
BRANCH 5 16
ATOM     16 @CA  IDS B   1     -28.299  55.183  13.2800  0.00  0.00     0.000 C
ATOM     17   O  IDS B   1     -29.484  55.478  13.4170  0.00  0.00     0.000 OA
ATOM     18   O  IDS B   1     -27.785  54.460  14.1300  0.00  0.00     0.000 OA
ENDBRANCH 5 16
BRANCH 1 19
ATOM     19  O4  SGN B   2     -24.928  56.299  11.5570  0.00  0.00     0.000 O
BRANCH 19 23
ATOM     20  C1  SGN B   2     -21.467  55.903  13.7060  0.00  0.00     0.000 C
ATOM     21  C2  SGN B   2     -22.733  56.293  14.4350  0.00  0.00     0.000 C
ATOM     22  C3  SGN B   2     -23.913  55.826  13.6600  0.00  0.00     0.000 C
ATOM     23  C4  SGN B   2     -23.841  56.592  12.3590  0.00  0.00     0.000 C
ATOM     24  C5  SGN B   2     -22.618  56.087  11.6750  0.00  0.00     0.000 C
ATOM     25  O5  SGN B   2     -21.501  56.459  12.3990  0.00  0.00     0.000 O
ATOM     26   O  SGN B   2     -25.071  56.146  14.3460  0.00  0.00     0.000 O
ATOM     28  HD  SGN B   2     -25.812  56.484  14.6420  0.00  0.00     0.000 HD
BRANCH 21 30
ATOM     28   N  SGN B   2     -21.773  55.898  15.4240  0.00  0.00     0.000 N
ATOM     30  HD  SGN B   2     -22.188  55.206  15.7390  0.00  0.00     0.000 HD
ATOM     30 @NS  SGN B   2     -21.878  56.613  16.8790  0.00  0.00     0.000 S
ATOM     31   O  SGN B   2     -23.053  57.416  16.9230  0.00  0.00     0.000 OA
ATOM     32   O  SGN B   2     -21.959  55.531  17.7730  0.00  0.00     0.000 OA
ATOM     33   O  SGN B   2     -20.714  57.403  17.0170  0.00  0.00     0.000 OA
ENDBRANCH 21 30
BRANCH 24 34
ATOM     34   C  SGN B   2     -22.415  56.580  10.2900  0.00  0.00     0.000 C
ATOM     35   O  SGN B   2     -22.893  55.610   9.4280  0.00  0.00     0.000 O
ATOM     36  @S  SGN B   2     -23.060  55.827   7.9280  0.00  0.00     0.000 S
ATOM     37   O  SGN B   2     -21.801  55.386   7.3610  0.00  0.00     0.000 OA
ATOM     38   O  SGN B   2     -24.192  55.029   7.5160  0.00  0.00     0.000 OA
ATOM     39   O  SGN B   2     -23.308  57.254   7.7750  0.00  0.00     0.000 OA
ENDBRANCH 24 34
BRANCH 20 40
ATOM     40  O4  IDS B   3     -21.336  54.515  13.6620  0.00  0.00     0.000 O
BRANCH 40 44
ATOM     41  C1  IDS B   3     -19.348  51.677  14.2090  0.00  0.00     0.000 C
ATOM     42  C2  IDS B   3     -18.965  53.022  14.8230  0.00  0.00     0.000 C
ATOM     43  C3  IDS B   3     -19.019  54.230  13.8680  0.00  0.00     0.000 C
ATOM     44  C4  IDS B   3     -20.213  54.134  12.9390  0.00  0.00     0.000 C
ATOM     45  C5  IDS B   3     -20.400  52.714  12.3830  0.00  0.00     0.000 C
ATOM     46  O5  IDS B   3     -20.519  51.806  13.4170  0.00  0.00     0.000 O
ATOM     47   O  IDS B   3     -17.846  54.256  13.0810  0.00  0.00     0.000 O
ATOM     49  HD  IDS B   3     -18.538  54.590  13.4810  0.00  0.00     0.000 HD
BRANCH 42 49
ATOM     49   O  IDS B   3     -19.839  53.294  15.8810  0.00  0.00     0.000 O
ATOM     50   O  IDS B   3     -18.689  51.793  17.2840  0.00  0.00     0.000 OA
ATOM     51   O  IDS B   3     -19.499  53.825  18.1890  0.00  0.00     0.000 OA
ATOM     52   O  IDS B   3     -21.005  52.137  17.5130  0.00  0.00     0.000 OA
ATOM     53  @S  IDS B   3     -19.749  52.732  17.3020  0.00  0.00     0.000 S
ENDBRANCH 42 49
BRANCH 45 54
ATOM     54 @CA  IDS B   3     -21.564  52.541  11.4100  0.00  0.00     0.000 C
ATOM     55   O  IDS B   3     -22.649  52.184  11.7820  0.00  0.00     0.000 OA
ATOM     56   O  IDS B   3     -21.442  52.777  10.2540  0.00  0.00     0.000 OA
ENDBRANCH 45 54
BRANCH 41 57
ATOM     57  O4  SGN B   4     -18.281  51.180  13.4710  0.00  0.00     0.000 O
BRANCH 57 61
ATOM     58  C1  SGN B   4     -19.713  47.318  13.3160  0.00  0.00     0.000 C
ATOM     59  C2  SGN B   4     -18.931  47.678  14.5680  0.00  0.00     0.000 C
ATOM     60  C3  SGN B   4     -18.805  49.194  14.6810  0.00  0.00     0.000 C
ATOM     61  C4  SGN B   4     -18.176  49.791  13.4160  0.00  0.00     0.000 C
ATOM     62  C5  SGN B   4     -18.978  49.296  12.2160  0.00  0.00     0.000 C
ATOM     63  O5  SGN B   4     -19.053  47.883  12.1960  0.00  0.00     0.000 O
ATOM     64   O  SGN B   4     -17.976  49.501  15.7830  0.00  0.00     0.000 O
ATOM     66  HD  SGN B   4     -17.253  49.946  15.6090  0.00  0.00     0.000 HD
BRANCH 59 68
ATOM     66   N  SGN B   4     -18.476  46.498  15.2750  0.00  0.00     0.000 N
ATOM     68  HD  SGN B   4     -18.585  46.747  14.4530  0.00  0.00     0.000 HD
ATOM     68 @NS  SGN B   4     -19.559  45.522  16.0260  0.00  0.00     0.000 S
ATOM     69   O  SGN B   4     -20.580  46.345  16.6060  0.00  0.00     0.000 OA
ATOM     70   O  SGN B   4     -20.096  44.665  15.0090  0.00  0.00     0.000 OA
ATOM     71   O  SGN B   4     -18.786  44.824  17.0080  0.00  0.00     0.000 OA
ENDBRANCH 59 68
BRANCH 62 72
ATOM     72   C  SGN B   4     -18.374  49.720  10.8860  0.00  0.00     0.000 C
ATOM     73   O  SGN B   4     -17.042  49.301  10.9290  0.00  0.00     0.000 O
ATOM     74  @S  SGN B   4     -16.163  48.852   9.7490  0.00  0.00     0.000 S
ATOM     75   O  SGN B   4     -16.118  49.923   8.8240  0.00  0.00     0.000 OA
ATOM     76   O  SGN B   4     -14.886  48.592  10.3410  0.00  0.00     0.000 OA
ATOM     77   O  SGN B   4     -16.812  47.713   9.1930  0.00  0.00     0.000 OA
ENDBRANCH 62 72
BRANCH 58 78
ATOM     78  O4  IDS B   5     -21.050  47.761  13.4320  0.00  0.00     0.000 O
BRANCH 78 82
ATOM     79  C1  IDS B   5     -24.458  48.379  13.4290  0.00  0.00     0.000 C
ATOM     80  C2  IDS B   5     -23.876  47.486  14.4810  0.00  0.00     0.000 C
ATOM     81  C3  IDS B   5     -22.972  46.388  13.9270  0.00  0.00     0.000 C
ATOM     82  C4  IDS B   5     -22.015  46.898  12.8690  0.00  0.00     0.000 C
ATOM     83  C5  IDS B   5     -22.818  47.663  11.8660  0.00  0.00     0.000 C
ATOM     84  O5  IDS B   5     -23.454  48.755  12.5030  0.00  0.00     0.000 O
ATOM     85   O  IDS B   5     -23.793  45.417  13.3270  0.00  0.00     0.000 O
ATOM     87  HD  IDS B   5     -23.120  45.840  12.9840  0.00  0.00     0.000 HD
BRANCH 80 87
ATOM     87   O  IDS B   5     -23.107  48.253  15.3200  0.00  0.00     0.000 O
ATOM     88  @S  IDS B   5     -23.448  48.681  16.7500  0.00  0.00     0.000 S
ATOM     89   O  IDS B   5     -23.762  47.476  17.4290  0.00  0.00     0.000 OA
ATOM     90   O  IDS B   5     -22.285  49.338  17.2340  0.00  0.00     0.000 OA
ATOM     91   O  IDS B   5     -24.555  49.565  16.6420  0.00  0.00     0.000 OA
ENDBRANCH 80 87
BRANCH 83 92
ATOM     92 @CA  IDS B   5     -22.023  48.083  10.6350  0.00  0.00     0.000 C
ATOM     93   O  IDS B   5     -21.950  49.268  10.3010  0.00  0.00     0.000 OA
ATOM     94   O  IDS B   5     -21.439  47.239   9.9450  0.00  0.00     0.000 OA
ENDBRANCH 83 92
BRANCH 79 95
ATOM     95  O4  SGN B   6     -25.527  47.739  12.8150  0.00  0.00     0.000 O
BRANCH 95 99
ATOM     96  C1  SGN B   6     -28.679  48.931  10.3960  0.00  0.00     0.000 C
ATOM     97  C2  SGN B   6     -27.332  49.582  10.1040  0.00  0.00     0.000 C
ATOM     98  C3  SGN B   6     -26.263  48.649  10.6750  0.00  0.00     0.000 C
ATOM     99  C4  SGN B   6     -26.469  48.611  12.2170  0.00  0.00     0.000 C
ATOM    100  C5  SGN B   6     -27.899  48.050  12.4610  0.00  0.00     0.000 C
ATOM    101  O5  SGN B   6     -28.885  48.830  11.7910  0.00  0.00     0.000 O
BRANCH 97 104
ATOM    102   N  SGN B   6     -27.933  50.837   9.6430  0.00  0.00     0.000 N
ATOM    104  HD  SGN B   6     -28.473  50.677   8.9860  0.00  0.00     0.000 HD
ATOM    104 @NS  SGN B   6     -27.582  51.337   8.1010  0.00  0.00     0.000 S
ATOM    105   O  SGN B   6     -26.728  50.336   7.4990  0.00  0.00     0.000 OA
ATOM    106   O  SGN B   6     -28.843  51.466   7.4080  0.00  0.00     0.000 OA
ATOM    107   O  SGN B   6     -26.894  52.601   8.2370  0.00  0.00     0.000 OA
ENDBRANCH 97 104
BRANCH 100 108
ATOM    108   C  SGN B   6     -28.346  47.967  13.9160  0.00  0.00     0.000 C
ATOM    109   O  SGN B   6     -28.930  46.710  14.1530  0.00  0.00     0.000 O
ATOM    110  @S  SGN B   6     -29.528  46.217  15.5210  0.00  0.00     0.000 S
ATOM    111   O  SGN B   6     -30.229  47.350  16.0780  0.00  0.00     0.000 OA
ATOM    112   O  SGN B   6     -30.427  45.119  15.2040  0.00  0.00     0.000 OA
ATOM    113   O  SGN B   6     -28.394  45.812  16.3200  0.00  0.00     0.000 OA
ENDBRANCH 100 108
ENDBRANCH 95 99
ENDBRANCH 79 95
ENDBRANCH 78 82
ENDBRANCH 58 78
ENDBRANCH 57 61
ENDBRANCH 41 57
ENDBRANCH 40 44
ENDBRANCH 20 40
ENDBRANCH 19 23
ENDBRANCH 1 19
TORSDOF 22
ENDMDL
MODEL 11
REMARK VINA RESULT:      -0.8      3.749     10.485
ROOT
ATOM      1  C1  IDS B   1     -14.305  50.011  12.4400  0.00  0.00     0.000 C
ATOM      2  C2  IDS B   1     -13.714  50.493  11.1420  0.00  0.00     0.000 C
ATOM      3  C3  IDS B   1     -13.052  51.891  11.1730  0.00  0.00     0.000 C
ATOM      4  C4  IDS B   1     -12.476  52.287  12.5840  0.00  0.00     0.000 C
ATOM      5  C5  IDS B   1     -13.239  51.613  13.7500  0.00  0.00     0.000 C
ATOM      6  O5  IDS B   1     -13.395  50.243  13.4960  0.00  0.00     0.000 O
ATOM      7   O  IDS B   1     -14.030  52.831  10.7380  0.00  0.00     0.000 O
ATOM      9  HD  IDS B   1     -13.439  53.234  11.2270  0.00  0.00     0.000 HD
ATOM      9   O  IDS B   1     -11.135  51.857  12.6350  0.00  0.00     0.000 O
ATOM     11  HD  IDS B   1     -10.544  52.259  13.1240  0.00  0.00     0.000 HD
ENDROOT
BRANCH 2 11
ATOM     11   O  IDS B   1     -12.738  49.607  10.7160  0.00  0.00     0.000 O
ATOM     12  @S  IDS B   1     -11.904  49.779   9.4320  0.00  0.00     0.000 S
ATOM     13   O  IDS B   1     -12.756  50.572   8.5690  0.00  0.00     0.000 OA
ATOM     14   O  IDS B   1     -10.691  50.480   9.8140  0.00  0.00     0.000 OA
ATOM     15   O  IDS B   1     -11.650  48.438   8.9430  0.00  0.00     0.000 OA
ENDBRANCH 2 11
BRANCH 5 16
ATOM     16 @CA  IDS B   1     -12.662  51.815  15.1490  0.00  0.00     0.000 C
ATOM     17   O  IDS B   1     -11.823  52.682  15.3810  0.00  0.00     0.000 OA
ATOM     18   O  IDS B   1     -13.040  51.116  16.0850  0.00  0.00     0.000 OA
ENDBRANCH 5 16
BRANCH 1 19
ATOM     19  O4  SGN B   2     -15.515  50.708  12.6560  0.00  0.00     0.000 O
BRANCH 19 23
ATOM     20  C1  SGN B   2     -19.237  49.527  13.8830  0.00  0.00     0.000 C
ATOM     21  C2  SGN B   2     -18.114  49.558  14.8960  0.00  0.00     0.000 C
ATOM     22  C3  SGN B   2     -17.072  50.519  14.4490  0.00  0.00     0.000 C
ATOM     23  C4  SGN B   2     -16.548  49.939  13.1550  0.00  0.00     0.000 C
ATOM     24  C5  SGN B   2     -17.688  50.024  12.2000  0.00  0.00     0.000 C
ATOM     25  O5  SGN B   2     -18.699  49.180  12.6150  0.00  0.00     0.000 O
ATOM     26   O  SGN B   2     -16.063  50.579  15.3950  0.00  0.00     0.000 O
ATOM     28  HD  SGN B   2     -15.335  50.511  15.8580  0.00  0.00     0.000 HD
BRANCH 21 30
ATOM     28   N  SGN B   2     -19.313  49.005  15.4560  0.00  0.00     0.000 N
ATOM     30  HD  SGN B   2     -19.730  49.744  15.6270  0.00  0.00     0.000 HD
ATOM     30 @NS  SGN B   2     -19.293  48.660  17.0440  0.00  0.00     0.000 S
ATOM     31   O  SGN B   2     -18.078  49.139  17.6120  0.00  0.00     0.000 OA
ATOM     32   O  SGN B   2     -20.407  49.354  17.5460  0.00  0.00     0.000 OA
ATOM     33   O  SGN B   2     -19.383  47.252  17.1440  0.00  0.00     0.000 OA
ENDBRANCH 21 30
BRANCH 24 34
ATOM     34   C  SGN B   2     -17.370  49.655  10.7970  0.00  0.00     0.000 C
ATOM     35   O  SGN B   2     -16.991  48.325  10.7920  0.00  0.00     0.000 O
ATOM     36  @S  SGN B   2     -16.791  47.514   9.5170  0.00  0.00     0.000 S
ATOM     37   O  SGN B   2     -15.386  47.680   9.2040  0.00  0.00     0.000 OA
ATOM     38   O  SGN B   2     -17.157  46.152   9.8300  0.00  0.00     0.000 OA
ATOM     39   O  SGN B   2     -17.688  48.114   8.5390  0.00  0.00     0.000 OA
ENDBRANCH 24 34
BRANCH 20 40
ATOM     40  O4  IDS B   3     -19.888  50.759  13.8370  0.00  0.00     0.000 O
BRANCH 40 44
ATOM     41  C1  IDS B   3     -22.263  53.315  13.4730  0.00  0.00     0.000 C
ATOM     42  C2  IDS B   3     -21.992  52.698  14.8430  0.00  0.00     0.000 C
ATOM     43  C3  IDS B   3     -21.946  51.158  14.8840  0.00  0.00     0.000 C
ATOM     44  C4  IDS B   3     -21.256  50.604  13.6540  0.00  0.00     0.000 C
ATOM     45  C5  IDS B   3     -21.700  51.319  12.3690  0.00  0.00     0.000 C
ATOM     46  O5  IDS B   3     -21.478  52.678  12.4750  0.00  0.00     0.000 O
ATOM     47   O  IDS B   3     -23.264  50.652  14.9180  0.00  0.00     0.000 O
ATOM     49  HD  IDS B   3     -22.410  50.644  15.0580  0.00  0.00     0.000 HD
BRANCH 42 49
ATOM     49   O  IDS B   3     -20.753  53.159  15.3020  0.00  0.00     0.000 O
ATOM     50   O  IDS B   3     -21.309  52.599  17.5210  0.00  0.00     0.000 OA
ATOM     51   O  IDS B   3     -19.098  52.228  16.7580  0.00  0.00     0.000 OA
ATOM     52   O  IDS B   3     -19.907  54.427  17.0440  0.00  0.00     0.000 OA
ATOM     53  @S  IDS B   3     -20.235  53.095  16.7410  0.00  0.00     0.000 S
ENDBRANCH 42 49
BRANCH 45 54
ATOM     54 @CA  IDS B   3     -21.074  50.795  11.0790  0.00  0.00     0.000 C
ATOM     55   O  IDS B   3     -21.239  49.662  10.7130  0.00  0.00     0.000 OA
ATOM     56   O  IDS B   3     -20.421  51.497  10.3800  0.00  0.00     0.000 OA
ENDBRANCH 45 54
BRANCH 41 57
ATOM     57  O4  SGN B   4     -23.620  53.236  13.1860  0.00  0.00     0.000 O
BRANCH 57 61
ATOM     58  C1  SGN B   4     -26.444  55.000  10.7540  0.00  0.00     0.000 C
ATOM     59  C2  SGN B   4     -25.197  54.491  10.0500  0.00  0.00     0.000 C
ATOM     60  C3  SGN B   4     -24.438  53.536  10.9680  0.00  0.00     0.000 C
ATOM     61  C4  SGN B   4     -24.111  54.202  12.3090  0.00  0.00     0.000 C
ATOM     62  C5  SGN B   4     -25.412  54.757  12.8850  0.00  0.00     0.000 C
ATOM     63  O5  SGN B   4     -26.053  55.622  11.9670  0.00  0.00     0.000 O
ATOM     64   O  SGN B   4     -23.226  53.170  10.3410  0.00  0.00     0.000 O
ATOM     66  HD  SGN B   4     -22.498  53.373  10.7630  0.00  0.00     0.000 HD
BRANCH 59 68
ATOM     66   N  SGN B   4     -25.058  55.108   8.7470  0.00  0.00     0.000 N
ATOM     68  HD  SGN B   4     -25.350  55.331   9.5310  0.00  0.00     0.000 HD
ATOM     68 @NS  SGN B   4     -26.084  54.703   7.5340  0.00  0.00     0.000 S
ATOM     69   O  SGN B   4     -26.358  53.300   7.6260  0.00  0.00     0.000 OA
ATOM     70   O  SGN B   4     -27.272  55.481   7.7390  0.00  0.00     0.000 OA
ATOM     71   O  SGN B   4     -25.376  55.052   6.3390  0.00  0.00     0.000 OA
ENDBRANCH 59 68
BRANCH 62 72
ATOM     72   C  SGN B   4     -25.199  55.556  14.1620  0.00  0.00     0.000 C
ATOM     73   O  SGN B   4     -25.114  56.891  13.7590  0.00  0.00     0.000 O
ATOM     74  @S  SGN B   4     -25.551  58.137  14.5480  0.00  0.00     0.000 S
ATOM     75   O  SGN B   4     -24.831  58.139  15.7680  0.00  0.00     0.000 OA
ATOM     76   O  SGN B   4     -25.189  59.233  13.7020  0.00  0.00     0.000 OA
ATOM     77   O  SGN B   4     -26.950  57.984  14.7710  0.00  0.00     0.000 OA
ENDBRANCH 62 72
BRANCH 58 78
ATOM     78  O4  IDS B   5     -27.352  53.938  10.9640  0.00  0.00     0.000 O
BRANCH 78 82
ATOM     79  C1  IDS B   5     -29.979  51.712  11.3400  0.00  0.00     0.000 C
ATOM     80  C2  IDS B   5     -29.426  51.969   9.9710  0.00  0.00     0.000 C
ATOM     81  C3  IDS B   5     -29.300  53.450   9.6250  0.00  0.00     0.000 C
ATOM     82  C4  IDS B   5     -28.709  54.266  10.7570  0.00  0.00     0.000 C
ATOM     83  C5  IDS B   5     -29.479  53.939  11.9970  0.00  0.00     0.000 C
ATOM     84  O5  IDS B   5     -29.350  52.560  12.2840  0.00  0.00     0.000 O
ATOM     85   O  IDS B   5     -30.593  53.944   9.3730  0.00  0.00     0.000 O
ATOM     87  HD  IDS B   5     -29.998  54.248   9.9240  0.00  0.00     0.000 HD
BRANCH 80 87
ATOM     87   O  IDS B   5     -28.163  51.434   9.9100  0.00  0.00     0.000 O
ATOM     88  @S  IDS B   5     -27.693  50.281   9.0210  0.00  0.00     0.000 S
ATOM     89   O  IDS B   5     -28.072  50.652   7.7050  0.00  0.00     0.000 OA
ATOM     90   O  IDS B   5     -26.289  50.198   9.2220  0.00  0.00     0.000 OA
ATOM     91   O  IDS B   5     -28.369  49.122   9.4900  0.00  0.00     0.000 OA
ENDBRANCH 80 87
BRANCH 83 92
ATOM     92 @CA  IDS B   5     -29.125  54.822  13.1890  0.00  0.00     0.000 C
ATOM     93   O  IDS B   5     -28.547  54.356  14.1740  0.00  0.00     0.000 OA
ATOM     94   O  IDS B   5     -29.418  56.023  13.1900  0.00  0.00     0.000 OA
ENDBRANCH 83 92
BRANCH 79 95
ATOM     95  O4  SGN B   6     -31.358  51.877  11.3220  0.00  0.00     0.000 O
BRANCH 95 99
ATOM     96  C1  SGN B   6     -34.500  51.022  13.8930  0.00  0.00     0.000 C
ATOM     97  C2  SGN B   6     -33.330  51.787  14.5010  0.00  0.00     0.000 C
ATOM     98  C3  SGN B   6     -32.598  52.460  13.3390  0.00  0.00     0.000 C
ATOM     99  C4  SGN B   6     -32.030  51.326  12.4400  0.00  0.00     0.000 C
ATOM    100  C5  SGN B   6     -33.251  50.503  11.9380  0.00  0.00     0.000 C
ATOM    101  O5  SGN B   6     -34.028  50.010  13.0250  0.00  0.00     0.000 O
BRANCH 97 104
ATOM    102   N  SGN B   6     -33.092  51.349  15.8790  0.00  0.00     0.000 N
ATOM    104  HD  SGN B   6     -33.840  51.106  16.2410  0.00  0.00     0.000 HD
ATOM    104 @NS  SGN B   6     -33.786  52.235  17.0980  0.00  0.00     0.000 S
ATOM    105   O  SGN B   6     -34.554  53.297  16.4860  0.00  0.00     0.000 OA
ATOM    106   O  SGN B   6     -34.617  51.325  17.8520  0.00  0.00     0.000 OA
ATOM    107   O  SGN B   6     -32.692  52.763  17.8820  0.00  0.00     0.000 OA
ENDBRANCH 97 104
BRANCH 100 108
ATOM    108   C  SGN B   6     -32.932  49.293  11.0680  0.00  0.00     0.000 C
ATOM    109   O  SGN B   6     -34.108  48.558  10.8400  0.00  0.00     0.000 O
ATOM    110  @S  SGN B   6     -34.218  47.236   9.9970  0.00  0.00     0.000 S
ATOM    111   O  SGN B   6     -33.047  46.459  10.3240  0.00  0.00     0.000 OA
ATOM    112   O  SGN B   6     -35.446  46.580  10.4200  0.00  0.00     0.000 OA
ATOM    113   O  SGN B   6     -34.244  47.655   8.6140  0.00  0.00     0.000 OA
ENDBRANCH 100 108
ENDBRANCH 95 99
ENDBRANCH 79 95
ENDBRANCH 78 82
ENDBRANCH 58 78
ENDBRANCH 57 61
ENDBRANCH 41 57
ENDBRANCH 40 44
ENDBRANCH 20 40
ENDBRANCH 19 23
ENDBRANCH 1 19
TORSDOF 22
ENDMDL
MODEL 12
REMARK VINA RESULT:      -0.6      2.437      8.490
ROOT
ATOM      1  C1  IDS B   1     -27.448  52.210  11.8240  0.00  0.00     0.000 C
ATOM      2  C2  IDS B   1     -26.971  53.627  12.0050  0.00  0.00     0.000 C
ATOM      3  C3  IDS B   1     -26.074  54.192  10.8770  0.00  0.00     0.000 C
ATOM      4  C4  IDS B   1     -26.348  53.546   9.4680  0.00  0.00     0.000 C
ATOM      5  C5  IDS B   1     -26.879  52.095   9.5690  0.00  0.00     0.000 C
ATOM      6  O5  IDS B   1     -27.922  52.029  10.5050  0.00  0.00     0.000 O
ATOM      7   O  IDS B   1     -24.721  53.996  11.2760  0.00  0.00     0.000 O
ATOM      9  HD  IDS B   1     -24.763  54.056  10.4130  0.00  0.00     0.000 HD
ATOM      9   O  IDS B   1     -27.329  54.324   8.8220  0.00  0.00     0.000 O
ATOM     11  HD  IDS B   1     -27.371  54.384   7.9590  0.00  0.00     0.000 HD
ENDROOT
BRANCH 2 11
ATOM     11   O  IDS B   1     -28.061  54.477  12.1020  0.00  0.00     0.000 O
ATOM     12  @S  IDS B   1     -28.006  55.901  12.6890  0.00  0.00     0.000 S
ATOM     13   O  IDS B   1     -26.889  55.853  13.6110  0.00  0.00     0.000 OA
ATOM     14   O  IDS B   1     -27.771  56.802  11.5750  0.00  0.00     0.000 OA
ATOM     15   O  IDS B   1     -29.291  56.116  13.3250  0.00  0.00     0.000 OA
ENDBRANCH 2 11
BRANCH 5 16
ATOM     16 @CA  IDS B   1     -27.316  51.436   8.2640  0.00  0.00     0.000 C
ATOM     17   O  IDS B   1     -27.152  50.235   8.0620  0.00  0.00     0.000 OA
ATOM     18   O  IDS B   1     -27.859  52.098   7.3830  0.00  0.00     0.000 OA
ENDBRANCH 5 16
BRANCH 1 19
ATOM     19  O4  SGN B   2     -26.364  51.346  12.0930  0.00  0.00     0.000 O
BRANCH 19 23
ATOM     20  C1  SGN B   2     -26.055  47.753  14.0300  0.00  0.00     0.000 C
ATOM     21  C2  SGN B   2     -26.955  47.849  12.8180  0.00  0.00     0.000 C
ATOM     22  C3  SGN B   2     -26.501  48.971  11.9540  0.00  0.00     0.000 C
ATOM     23  C4  SGN B   2     -26.690  50.206  12.8040  0.00  0.00     0.000 C
ATOM     24  C5  SGN B   2     -25.714  50.066  13.9200  0.00  0.00     0.000 C
ATOM     25  O5  SGN B   2     -26.076  48.997  14.7160  0.00  0.00     0.000 O
ATOM     26   O  SGN B   2     -27.298  49.035  10.8240  0.00  0.00     0.000 O
ATOM     28  HD  SGN B   2     -27.874  49.227  10.2070  0.00  0.00     0.000 HD
BRANCH 21 30
ATOM     28   N  SGN B   2     -27.741  46.853  13.4840  0.00  0.00     0.000 N
ATOM     30  HD  SGN B   2     -27.113  46.483  13.9520  0.00  0.00     0.000 HD
ATOM     30 @NS  SGN B   2     -27.969  45.448  12.6990  0.00  0.00     0.000 S
ATOM     31   O  SGN B   2     -27.178  45.439  11.5150  0.00  0.00     0.000 OA
ATOM     32   O  SGN B   2     -27.531  44.481  13.6190  0.00  0.00     0.000 OA
ATOM     33   O  SGN B   2     -29.348  45.386  12.3920  0.00  0.00     0.000 OA
ENDBRANCH 21 30
BRANCH 24 34
ATOM     34   C  SGN B   2     -25.597  51.245  14.8150  0.00  0.00     0.000 C
ATOM     35   O  SGN B   2     -24.425  51.903  14.4870  0.00  0.00     0.000 O
ATOM     36  @S  SGN B   2     -24.052  53.277  15.0320  0.00  0.00     0.000 S
ATOM     37   O  SGN B   2     -23.289  52.991  16.2300  0.00  0.00     0.000 OA
ATOM     38   O  SGN B   2     -23.286  53.938  14.0010  0.00  0.00     0.000 OA
ATOM     39   O  SGN B   2     -25.322  53.944  15.2870  0.00  0.00     0.000 OA
ENDBRANCH 24 34
BRANCH 20 40
ATOM     40  O4  IDS B   3     -24.759  47.406  13.6500  0.00  0.00     0.000 O
BRANCH 40 44
ATOM     41  C1  IDS B   3     -21.600  45.900  13.4090  0.00  0.00     0.000 C
ATOM     42  C2  IDS B   3     -22.852  45.152  12.9570  0.00  0.00     0.000 C
ATOM     43  C3  IDS B   3     -24.042  45.193  13.9350  0.00  0.00     0.000 C
ATOM     44  C4  IDS B   3     -24.168  46.559  14.5790  0.00  0.00     0.000 C
ATOM     45  C5  IDS B   3     -22.806  47.121  15.0130  0.00  0.00     0.000 C
ATOM     46  O5  IDS B   3     -21.943  47.173  13.9360  0.00  0.00     0.000 O
ATOM     47   O  IDS B   3     -23.842  44.238  14.9560  0.00  0.00     0.000 O
ATOM     49  HD  IDS B   3     -24.303  44.752  14.4330  0.00  0.00     0.000 HD
BRANCH 42 49
ATOM     49   O  IDS B   3     -23.291  45.707  11.7500  0.00  0.00     0.000 O
ATOM     50   O  IDS B   3     -22.199  44.022  10.5200  0.00  0.00     0.000 OA
ATOM     51   O  IDS B   3     -24.324  44.777   9.8020  0.00  0.00     0.000 OA
ATOM     52   O  IDS B   3     -22.443  46.195   9.6520  0.00  0.00     0.000 OA
ATOM     53  @S  IDS B   3     -23.054  45.138  10.3490  0.00  0.00     0.000 S
ENDBRANCH 42 49
BRANCH 45 54
ATOM     54 @CA  IDS B   3     -22.850  48.482  15.7030  0.00  0.00     0.000 C
ATOM     55   O  IDS B   3     -22.350  49.457  15.2090  0.00  0.00     0.000 OA
ATOM     56   O  IDS B   3     -23.400  48.629  16.7440  0.00  0.00     0.000 OA
ENDBRANCH 45 54
BRANCH 41 57
ATOM     57  O4  SGN B   4     -20.906  45.131  14.3350  0.00  0.00     0.000 O
BRANCH 57 61
ATOM     58  C1  SGN B   4     -17.426  47.322  14.0420  0.00  0.00     0.000 C
ATOM     59  C2  SGN B   4     -17.588  46.208  13.0220  0.00  0.00     0.000 C
ATOM     60  C3  SGN B   4     -19.042  45.749  12.9830  0.00  0.00     0.000 C
ATOM     61  C4  SGN B   4     -19.527  45.330  14.3760  0.00  0.00     0.000 C
ATOM     62  C5  SGN B   4     -19.236  46.479  15.3380  0.00  0.00     0.000 C
ATOM     63  O5  SGN B   4     -17.870  46.846  15.3020  0.00  0.00     0.000 O
ATOM     64   O  SGN B   4     -19.145  44.636  12.1190  0.00  0.00     0.000 O
ATOM     66  HD  SGN B   4     -19.436  43.900  12.4710  0.00  0.00     0.000 HD
BRANCH 59 68
ATOM     66   N  SGN B   4     -16.308  45.862  12.4370  0.00  0.00     0.000 N
ATOM     68  HD  SGN B   4     -16.608  46.127  13.2050  0.00  0.00     0.000 HD
ATOM     68 @NS  SGN B   4     -15.573  46.899  11.4000  0.00  0.00     0.000 S
ATOM     69   O  SGN B   4     -16.582  47.512  10.5860  0.00  0.00     0.000 OA
ATOM     70   O  SGN B   4     -14.902  47.869  12.2160  0.00  0.00     0.000 OA
ATOM     71   O  SGN B   4     -14.680  46.073  10.6460  0.00  0.00     0.000 OA
ENDBRANCH 59 68
BRANCH 62 72
ATOM     72   C  SGN B   4     -19.558  46.136  16.7840  0.00  0.00     0.000 C
ATOM     73   O  SGN B   4     -19.032  47.183  17.5440  0.00  0.00     0.000 O
ATOM     74  @S  SGN B   4     -19.569  47.734  18.8760  0.00  0.00     0.000 S
ATOM     75   O  SGN B   4     -19.585  46.663  19.8020  0.00  0.00     0.000 OA
ATOM     76   O  SGN B   4     -18.629  48.752  19.2390  0.00  0.00     0.000 OA
ATOM     77   O  SGN B   4     -20.886  48.202  18.6010  0.00  0.00     0.000 OA
ENDBRANCH 62 72
BRANCH 58 78
ATOM     78  O4  IDS B   5     -18.133  48.472  13.6240  0.00  0.00     0.000 O
BRANCH 78 82
ATOM     79  C1  IDS B   5     -19.344  51.553  12.6060  0.00  0.00     0.000 C
ATOM     80  C2  IDS B   5     -18.443  50.782  11.6900  0.00  0.00     0.000 C
ATOM     81  C3  IDS B   5     -17.164  50.285  12.3580  0.00  0.00     0.000 C
ATOM     82  C4  IDS B   5     -17.414  49.683  13.7260  0.00  0.00     0.000 C
ATOM     83  C5  IDS B   5     -18.231  50.662  14.5070  0.00  0.00     0.000 C
ATOM     84  O5  IDS B   5     -19.464  50.882  13.8480  0.00  0.00     0.000 O
ATOM     85   O  IDS B   5     -16.311  51.391  12.5290  0.00  0.00     0.000 O
ATOM     87  HD  IDS B   5     -16.581  50.822  13.1230  0.00  0.00     0.000 HD
BRANCH 80 87
ATOM     87   O  IDS B   5     -19.124  49.672  11.2540  0.00  0.00     0.000 O
ATOM     88  @S  IDS B   5     -19.643  49.408   9.8380  0.00  0.00     0.000 S
ATOM     89   O  IDS B   5     -18.518  49.589   8.9940  0.00  0.00     0.000 OA
ATOM     90   O  IDS B   5     -20.147  48.080   9.8630  0.00  0.00     0.000 OA
ATOM     91   O  IDS B   5     -20.669  50.364   9.6110  0.00  0.00     0.000 OA
ENDBRANCH 80 87
BRANCH 83 92
ATOM     92 @CA  IDS B   5     -18.409  50.282  15.9720  0.00  0.00     0.000 C
ATOM     93   O  IDS B   5     -17.449  49.912  16.6530  0.00  0.00     0.000 OA
ATOM     94   O  IDS B   5     -19.524  50.334  16.5050  0.00  0.00     0.000 OA
ENDBRANCH 83 92
BRANCH 79 95
ATOM     95  O4  SGN B   6     -18.858  52.846  12.7520  0.00  0.00     0.000 O
BRANCH 95 99
ATOM     96  C1  SGN B   6     -20.177  56.360  14.5210  0.00  0.00     0.000 C
ATOM     97  C2  SGN B   6     -19.936  55.188  15.4650  0.00  0.00     0.000 C
ATOM     98  C3  SGN B   6     -18.971  54.242  14.7500  0.00  0.00     0.000 C
ATOM     99  C4  SGN B   6     -19.706  53.713  13.4850  0.00  0.00     0.000 C
ATOM    100  C5  SGN B   6     -20.034  54.955  12.6090  0.00  0.00     0.000 C
ATOM    101  O5  SGN B   6     -20.800  55.914  13.3320  0.00  0.00     0.000 O
BRANCH 97 104
ATOM    102   N  SGN B   6     -20.848  55.018  16.6010  0.00  0.00     0.000 N
ATOM    104  HD  SGN B   6     -21.260  55.764  16.7570  0.00  0.00     0.000 HD
ATOM    104 @NS  SGN B   6     -20.539  55.899  17.9730  0.00  0.00     0.000 S
ATOM    105   O  SGN B   6     -19.378  56.722  17.7140  0.00  0.00     0.000 OA
ATOM    106   O  SGN B   6     -21.720  56.688  18.2340  0.00  0.00     0.000 OA
ATOM    107   O  SGN B   6     -20.277  54.934  19.0170  0.00  0.00     0.000 OA
ENDBRANCH 97 104
BRANCH 100 108
ATOM    108   C  SGN B   6     -20.808  54.683  11.3240  0.00  0.00     0.000 C
ATOM    109   O  SGN B   6     -20.000  54.998  10.2170  0.00  0.00     0.000 O
ATOM    110  @S  SGN B   6     -20.417  54.868   8.7080  0.00  0.00     0.000 S
ATOM    111   O  SGN B   6     -21.785  55.321   8.6340  0.00  0.00     0.000 OA
ATOM    112   O  SGN B   6     -19.514  55.726   7.9570  0.00  0.00     0.000 OA
ATOM    113   O  SGN B   6     -20.273  53.467   8.3810  0.00  0.00     0.000 OA
ENDBRANCH 100 108
ENDBRANCH 95 99
ENDBRANCH 79 95
ENDBRANCH 78 82
ENDBRANCH 58 78
ENDBRANCH 57 61
ENDBRANCH 41 57
ENDBRANCH 40 44
ENDBRANCH 20 40
ENDBRANCH 19 23
ENDBRANCH 1 19
TORSDOF 22
ENDMDL
MODEL 13
REMARK VINA RESULT:      -0.5      2.468     10.516
ROOT
ATOM      1  C1  IDS B   1     -18.038  47.641  15.9200  0.00  0.00     0.000 C
ATOM      2  C2  IDS B   1     -16.954  48.687  15.9100  0.00  0.00     0.000 C
ATOM      3  C3  IDS B   1     -16.614  49.327  17.2770  0.00  0.00     0.000 C
ATOM      4  C4  IDS B   1     -16.889  48.382  18.5050  0.00  0.00     0.000 C
ATOM      5  C5  IDS B   1     -18.024  47.365  18.2320  0.00  0.00     0.000 C
ATOM      6  O5  IDS B   1     -17.826  46.743  16.9910  0.00  0.00     0.000 O
ATOM      7   O  IDS B   1     -17.368  50.531  17.3790  0.00  0.00     0.000 O
ATOM      9  HD  IDS B   1     -17.170  50.246  18.1720  0.00  0.00     0.000 HD
ATOM      9   O  IDS B   1     -15.707  47.656  18.7610  0.00  0.00     0.000 O
ATOM     11  HD  IDS B   1     -15.509  47.371  19.5540  0.00  0.00     0.000 HD
ENDROOT
BRANCH 2 11
ATOM     11   O  IDS B   1     -15.777  48.134  15.4320  0.00  0.00     0.000 O
ATOM     12  @S  IDS B   1     -14.644  48.938  14.7660  0.00  0.00     0.000 S
ATOM     13   O  IDS B   1     -15.319  50.094  14.2110  0.00  0.00     0.000 OA
ATOM     14   O  IDS B   1     -13.709  49.292  15.8200  0.00  0.00     0.000 OA
ATOM     15   O  IDS B   1     -14.064  48.057  13.7720  0.00  0.00     0.000 OA
ENDBRANCH 2 11
BRANCH 5 16
ATOM     16 @CA  IDS B   1     -18.264  46.307  19.3060  0.00  0.00     0.000 C
ATOM     17   O  IDS B   1     -17.378  45.968  20.0860  0.00  0.00     0.000 OA
ATOM     18   O  IDS B   1     -19.366  45.776  19.4220  0.00  0.00     0.000 OA
ENDBRANCH 5 16
BRANCH 1 19
ATOM     19  O4  SGN B   2     -19.280  48.299  16.0540  0.00  0.00     0.000 O
BRANCH 19 23
ATOM     20  C1  SGN B   2     -22.968  47.282  14.5980  0.00  0.00     0.000 C
ATOM     21  C2  SGN B   2     -22.646  46.969  16.0420  0.00  0.00     0.000 C
ATOM     22  C3  SGN B   2     -21.580  47.888  16.5210  0.00  0.00     0.000 C
ATOM     23  C4  SGN B   2     -20.378  47.554  15.6680  0.00  0.00     0.000 C
ATOM     24  C5  SGN B   2     -20.752  47.969  14.2870  0.00  0.00     0.000 C
ATOM     25  O5  SGN B   2     -21.779  47.168  13.8290  0.00  0.00     0.000 O
ATOM     26   O  SGN B   2     -21.313  47.630  17.8540  0.00  0.00     0.000 O
ATOM     28  HD  SGN B   2     -20.988  47.385  18.6180  0.00  0.00     0.000 HD
BRANCH 21 30
ATOM     28   N  SGN B   2     -23.579  45.910  15.7890  0.00  0.00     0.000 N
ATOM     30  HD  SGN B   2     -24.103  46.326  15.2400  0.00  0.00     0.000 HD
ATOM     30 @NS  SGN B   2     -24.815  45.752  16.8330  0.00  0.00     0.000 S
ATOM     31   O  SGN B   2     -24.800  46.845  17.7460  0.00  0.00     0.000 OA
ATOM     32   O  SGN B   2     -25.950  45.786  16.0060  0.00  0.00     0.000 OA
ATOM     33   O  SGN B   2     -24.611  44.524  17.5040  0.00  0.00     0.000 OA
ENDBRANCH 21 30
BRANCH 24 34
ATOM     34   C  SGN B   2     -19.663  47.886  13.2810  0.00  0.00     0.000 C
ATOM     35   O  SGN B   2     -19.572  49.120  12.6620  0.00  0.00     0.000 O
ATOM     36  @S  SGN B   2     -18.436  49.506  11.7210  0.00  0.00     0.000 S
ATOM     37   O  SGN B   2     -18.922  49.136  10.4060  0.00  0.00     0.000 OA
ATOM     38   O  SGN B   2     -18.227  50.926  11.8830  0.00  0.00     0.000 OA
ATOM     39   O  SGN B   2     -17.290  48.726  12.1660  0.00  0.00     0.000 OA
ENDBRANCH 24 34
BRANCH 20 40
ATOM     40  O4  IDS B   3     -23.523  48.557  14.4860  0.00  0.00     0.000 O
BRANCH 40 44
ATOM     41  C1  IDS B   3     -25.481  51.326  13.5920  0.00  0.00     0.000 C
ATOM     42  C2  IDS B   3     -25.982  50.325  14.6310  0.00  0.00     0.000 C
ATOM     43  C3  IDS B   3     -25.837  48.839  14.2490  0.00  0.00     0.000 C
ATOM     44  C4  IDS B   3     -24.527  48.590  13.5280  0.00  0.00     0.000 C
ATOM     45  C5  IDS B   3     -24.226  49.678  12.4850  0.00  0.00     0.000 C
ATOM     46  O5  IDS B   3     -24.219  50.924  13.0810  0.00  0.00     0.000 O
ATOM     47   O  IDS B   3     -26.894  48.472  13.3870  0.00  0.00     0.000 O
ATOM     49  HD  IDS B   3     -26.272  48.343  13.9760  0.00  0.00     0.000 HD
BRANCH 42 49
ATOM     49   O  IDS B   3     -25.265  50.518  15.8170  0.00  0.00     0.000 O
ATOM     50   O  IDS B   3     -25.740  52.825  15.7880  0.00  0.00     0.000 OA
ATOM     51   O  IDS B   3     -25.754  51.671  17.8550  0.00  0.00     0.000 OA
ATOM     52   O  IDS B   3     -23.727  52.010  16.6940  0.00  0.00     0.000 OA
ATOM     53  @S  IDS B   3     -25.117  51.833  16.5860  0.00  0.00     0.000 S
ENDBRANCH 42 49
BRANCH 45 54
ATOM     54 @CA  IDS B   3     -22.938  49.481  11.6890  0.00  0.00     0.000 C
ATOM     55   O  IDS B   3     -21.987  50.200  11.8400  0.00  0.00     0.000 OA
ATOM     56   O  IDS B   3     -22.824  48.595  10.9090  0.00  0.00     0.000 OA
ENDBRANCH 45 54
BRANCH 41 57
ATOM     57  O4  SGN B   4     -26.426  51.461  12.5820  0.00  0.00     0.000 O
BRANCH 57 61
ATOM     58  C1  SGN B   4     -24.803  55.010  11.2500  0.00  0.00     0.000 C
ATOM     59  C2  SGN B   4     -25.949  55.142  12.2390  0.00  0.00     0.000 C
ATOM     60  C3  SGN B   4     -26.188  53.806  12.9370  0.00  0.00     0.000 C
ATOM     61  C4  SGN B   4     -26.432  52.687  11.9180  0.00  0.00     0.000 C
ATOM     62  C5  SGN B   4     -25.275  52.700  10.9220  0.00  0.00     0.000 C
ATOM     63  O5  SGN B   4     -25.119  53.977  10.3320  0.00  0.00     0.000 O
ATOM     64   O  SGN B   4     -27.329  53.921  13.7610  0.00  0.00     0.000 O
ATOM     66  HD  SGN B   4     -27.987  53.386  13.5830  0.00  0.00     0.000 HD
BRANCH 59 68
ATOM     66   N  SGN B   4     -26.524  56.471  12.1890  0.00  0.00     0.000 N
ATOM     68  HD  SGN B   4     -26.169  55.908  11.6350  0.00  0.00     0.000 HD
ATOM     68 @NS  SGN B   4     -25.679  57.753  12.7670  0.00  0.00     0.000 S
ATOM     69   O  SGN B   4     -24.970  57.333  13.9390  0.00  0.00     0.000 OA
ATOM     70   O  SGN B   4     -24.776  58.139  11.7220  0.00  0.00     0.000 OA
ATOM     71   O  SGN B   4     -26.678  58.738  13.0480  0.00  0.00     0.000 OA
ENDBRANCH 59 68
BRANCH 62 72
ATOM     72   C  SGN B   4     -25.466  51.712   9.7810  0.00  0.00     0.000 C
ATOM     73   O  SGN B   4     -26.810  51.816   9.4170  0.00  0.00     0.000 O
ATOM     74  @S  SGN B   4     -27.420  51.615   8.0190  0.00  0.00     0.000 S
ATOM     75   O  SGN B   4     -27.089  50.304   7.5980  0.00  0.00     0.000 OA
ATOM     76   O  SGN B   4     -28.827  51.782   8.2220  0.00  0.00     0.000 OA
ATOM     77   O  SGN B   4     -26.811  52.597   7.1850  0.00  0.00     0.000 OA
ENDBRANCH 62 72
BRANCH 58 78
ATOM     78  O4  IDS B   5     -23.593  54.766  11.9370  0.00  0.00     0.000 O
BRANCH 78 82
ATOM     79  C1  IDS B   5     -20.453  54.737  13.3990  0.00  0.00     0.000 C
ATOM     80  C2  IDS B   5     -21.367  55.897  13.6500  0.00  0.00     0.000 C
ATOM     81  C3  IDS B   5     -21.969  56.494  12.3810  0.00  0.00     0.000 C
ATOM     82  C4  IDS B   5     -22.466  55.438  11.4160  0.00  0.00     0.000 C
ATOM     83  C5  IDS B   5     -21.362  54.449  11.2230  0.00  0.00     0.000 C
ATOM     84  O5  IDS B   5     -21.040  53.850  12.4640  0.00  0.00     0.000 O
ATOM     85   O  IDS B   5     -20.958  57.225  11.7300  0.00  0.00     0.000 O
ATOM     87  HD  IDS B   5     -21.461  56.597  11.4090  0.00  0.00     0.000 HD
BRANCH 80 87
ATOM     87   O  IDS B   5     -22.415  55.458  14.4220  0.00  0.00     0.000 O
ATOM     88  @S  IDS B   5     -22.509  55.484  15.9490  0.00  0.00     0.000 S
ATOM     89   O  IDS B   5     -22.234  56.827  16.3120  0.00  0.00     0.000 OA
ATOM     90   O  IDS B   5     -23.829  55.055  16.2540  0.00  0.00     0.000 OA
ATOM     91   O  IDS B   5     -21.529  54.568  16.4180  0.00  0.00     0.000 OA
ENDBRANCH 80 87
BRANCH 83 92
ATOM     92 @CA  IDS B   5     -21.642  53.422  10.1310  0.00  0.00     0.000 C
ATOM     93   O  IDS B   5     -21.193  52.276  10.2070  0.00  0.00     0.000 OA
ATOM     94   O  IDS B   5     -22.323  53.724   9.1440  0.00  0.00     0.000 OA
ENDBRANCH 83 92
BRANCH 79 95
ATOM     95  O4  SGN B   6     -19.216  55.206  12.9740  0.00  0.00     0.000 O
BRANCH 95 99
ATOM     96  C1  SGN B   6     -15.344  53.841  13.5720  0.00  0.00     0.000 C
ATOM     97  C2  SGN B   6     -15.980  53.477  12.2350  0.00  0.00     0.000 C
ATOM     98  C3  SGN B   6     -17.100  54.490  11.9940  0.00  0.00     0.000 C
ATOM     99  C4  SGN B   6     -18.156  54.278  13.1160  0.00  0.00     0.000 C
ATOM    100  C5  SGN B   6     -17.431  54.547  14.4660  0.00  0.00     0.000 C
ATOM    101  O5  SGN B   6     -16.287  53.710  14.6180  0.00  0.00     0.000 O
BRANCH 97 104
ATOM    102   N  SGN B   6     -15.498  52.131  11.9090  0.00  0.00     0.000 N
ATOM    104  HD  SGN B   6     -14.671  52.052  12.1530  0.00  0.00     0.000 HD
ATOM    104 @NS  SGN B   6     -14.281  52.001  10.7890  0.00  0.00     0.000 S
ATOM    105   O  SGN B   6     -13.917  53.340  10.3790  0.00  0.00     0.000 OA
ATOM    106   O  SGN B   6     -13.189  51.314  11.4390  0.00  0.00     0.000 OA
ATOM    107   O  SGN B   6     -14.832  51.246   9.6870  0.00  0.00     0.000 OA
ENDBRANCH 97 104
BRANCH 100 108
ATOM    108   C  SGN B   6     -18.265  54.349  15.7260  0.00  0.00     0.000 C
ATOM    109   O  SGN B   6     -17.419  54.012  16.7980  0.00  0.00     0.000 O
ATOM    110  @S  SGN B   6     -17.877  53.718  18.2720  0.00  0.00     0.000 S
ATOM    111   O  SGN B   6     -19.090  52.945  18.1640  0.00  0.00     0.000 OA
ATOM    112   O  SGN B   6     -16.800  52.963  18.8930  0.00  0.00     0.000 OA
ATOM    113   O  SGN B   6     -18.090  55.011  18.8810  0.00  0.00     0.000 OA
ENDBRANCH 100 108
ENDBRANCH 95 99
ENDBRANCH 79 95
ENDBRANCH 78 82
ENDBRANCH 58 78
ENDBRANCH 57 61
ENDBRANCH 41 57
ENDBRANCH 40 44
ENDBRANCH 20 40
ENDBRANCH 19 23
ENDBRANCH 1 19
TORSDOF 22
ENDMDL
MODEL 14
REMARK VINA RESULT:      -0.3      3.828      8.489
ROOT
ATOM      1  C1  IDS B   1     -11.888  56.513  15.8900  0.00  0.00     0.000 C
ATOM      2  C2  IDS B   1     -12.550  57.437  16.8790  0.00  0.00     0.000 C
ATOM      3  C3  IDS B   1     -12.551  56.968  18.3530  0.00  0.00     0.000 C
ATOM      4  C4  IDS B   1     -11.337  56.036  18.7220  0.00  0.00     0.000 C
ATOM      5  C5  IDS B   1     -10.815  55.228  17.5090  0.00  0.00     0.000 C
ATOM      6  O5  IDS B   1     -10.647  56.074  16.4030  0.00  0.00     0.000 O
ATOM      7   O  IDS B   1     -13.791  56.308  18.5860  0.00  0.00     0.000 O
ATOM      9  HD  IDS B   1     -13.201  56.025  19.1540  0.00  0.00     0.000 HD
ATOM      9   O  IDS B   1     -10.287  56.860  19.1790  0.00  0.00     0.000 O
ATOM     11  HD  IDS B   1      -9.698  56.576  19.7460  0.00  0.00     0.000 HD
ENDROOT
BRANCH 2 11
ATOM     11   O  IDS B   1     -11.918  58.670  16.8590  0.00  0.00     0.000 O
ATOM     12  @S  IDS B   1     -12.610  59.999  16.4980  0.00  0.00     0.000 S
ATOM     13   O  IDS B   1     -13.701  59.597  15.6340  0.00  0.00     0.000 OA
ATOM     14   O  IDS B   1     -13.072  60.580  17.7460  0.00  0.00     0.000 OA
ATOM     15   O  IDS B   1     -11.600  60.805  15.8420  0.00  0.00     0.000 OA
ENDBRANCH 2 11
BRANCH 5 16
ATOM     16 @CA  IDS B   1      -9.546  54.410  17.7300  0.00  0.00     0.000 C
ATOM     17   O  IDS B   1      -9.054  53.730  16.8320  0.00  0.00     0.000 OA
ATOM     18   O  IDS B   1      -8.976  54.425  18.8180  0.00  0.00     0.000 OA
ENDBRANCH 5 16
BRANCH 1 19
ATOM     19  O4  SGN B   2     -12.755  55.420  15.6660  0.00  0.00     0.000 O
BRANCH 19 23
ATOM     20  C1  SGN B   2     -14.461  53.842  12.2960  0.00  0.00     0.000 C
ATOM     21  C2  SGN B   2     -12.952  53.885  12.3940  0.00  0.00     0.000 C
ATOM     22  C3  SGN B   2     -12.551  53.921  13.8250  0.00  0.00     0.000 C
ATOM     23  C4  SGN B   2     -13.113  55.224  14.3450  0.00  0.00     0.000 C
ATOM     24  C5  SGN B   2     -14.593  55.061  14.2910  0.00  0.00     0.000 C
ATOM     25  O5  SGN B   2     -14.996  54.971  12.9730  0.00  0.00     0.000 O
ATOM     26   O  SGN B   2     -11.170  53.919  13.9170  0.00  0.00     0.000 O
ATOM     28  HD  SGN B   2     -10.330  54.104  14.0170  0.00  0.00     0.000 HD
BRANCH 21 30
ATOM     28   N  SGN B   2     -13.308  53.041  11.2910  0.00  0.00     0.000 N
ATOM     30  HD  SGN B   2     -13.031  52.285  11.6110  0.00  0.00     0.000 HD
ATOM     30 @NS  SGN B   2     -12.228  52.914  10.0830  0.00  0.00     0.000 S
ATOM     31   O  SGN B   2     -11.028  53.584  10.4550  0.00  0.00     0.000 OA
ATOM     32   O  SGN B   2     -12.030  51.529   9.9620  0.00  0.00     0.000 OA
ATOM     33   O  SGN B   2     -12.824  53.524   8.9550  0.00  0.00     0.000 OA
ENDBRANCH 21 30
BRANCH 24 34
ATOM     34   C  SGN B   2     -15.377  56.162  14.9040  0.00  0.00     0.000 C
ATOM     35   O  SGN B   2     -16.073  55.632  15.9750  0.00  0.00     0.000 O
ATOM     36  @S  SGN B   2     -16.826  56.482  16.9920  0.00  0.00     0.000 S
ATOM     37   O  SGN B   2     -18.170  56.572  16.4560  0.00  0.00     0.000 OA
ATOM     38   O  SGN B   2     -16.752  55.783  18.2540  0.00  0.00     0.000 OA
ATOM     39   O  SGN B   2     -16.118  57.754  17.0250  0.00  0.00     0.000 OA
ENDBRANCH 24 34
BRANCH 20 40
ATOM     40  O4  IDS B   3     -14.952  52.651  12.8320  0.00  0.00     0.000 O
BRANCH 40 44
ATOM     41  C1  IDS B   3     -17.249  50.097  12.1240  0.00  0.00     0.000 C
ATOM     42  C2  IDS B   3     -16.955  51.183  11.0910  0.00  0.00     0.000 C
ATOM     43  C3  IDS B   3     -16.961  52.629  11.6250  0.00  0.00     0.000 C
ATOM     44  C4  IDS B   3     -16.329  52.702  13.0010  0.00  0.00     0.000 C
ATOM     45  C5  IDS B   3     -16.791  51.552  13.9100  0.00  0.00     0.000 C
ATOM     46  O5  IDS B   3     -16.519  50.334  13.3190  0.00  0.00     0.000 O
ATOM     47   O  IDS B   3     -18.293  53.086  11.7250  0.00  0.00     0.000 O
ATOM     49  HD  IDS B   3     -17.435  53.163  11.6340  0.00  0.00     0.000 HD
BRANCH 42 49
ATOM     49   O  IDS B   3     -15.687  50.950  10.5480  0.00  0.00     0.000 O
ATOM     50   O  IDS B   3     -16.604  49.580   8.8670  0.00  0.00     0.000 OA
ATOM     51   O  IDS B   3     -14.821  51.037   8.3200  0.00  0.00     0.000 OA
ATOM     52   O  IDS B   3     -14.451  49.175   9.7220  0.00  0.00     0.000 OA
ATOM     53  @S  IDS B   3     -15.373  50.141   9.2870  0.00  0.00     0.000 S
ENDBRANCH 42 49
BRANCH 45 54
ATOM     54 @CA  IDS B   3     -16.225  51.572  15.3290  0.00  0.00     0.000 C
ATOM     55   O  IDS B   3     -15.779  52.576  15.8150  0.00  0.00     0.000 OA
ATOM     56   O  IDS B   3     -16.227  50.599  16.0070  0.00  0.00     0.000 OA
ENDBRANCH 45 54
BRANCH 41 57
ATOM     57  O4  SGN B   4     -18.617  50.037  12.3610  0.00  0.00     0.000 O
BRANCH 57 61
ATOM     58  C1  SGN B   4     -21.482  47.298  13.4930  0.00  0.00     0.000 C
ATOM     59  C2  SGN B   4     -20.712  47.950  14.6300  0.00  0.00     0.000 C
ATOM     60  C3  SGN B   4     -19.988  49.192  14.1180  0.00  0.00     0.000 C
ATOM     61  C4  SGN B   4     -19.082  48.852  12.9280  0.00  0.00     0.000 C
ATOM     62  C5  SGN B   4     -19.929  48.122  11.8890  0.00  0.00     0.000 C
ATOM     63  O5  SGN B   4     -20.571  46.993  12.4500  0.00  0.00     0.000 O
ATOM     64   O  SGN B   4     -19.187  49.712  15.1580  0.00  0.00     0.000 O
ATOM     66  HD  SGN B   4     -18.335  49.754  15.0040  0.00  0.00     0.000 HD
BRANCH 59 68
ATOM     66   N  SGN B   4     -20.844  47.148  15.8290  0.00  0.00     0.000 N
ATOM     68  HD  SGN B   4     -20.812  47.017  14.9730  0.00  0.00     0.000 HD
ATOM     68 @NS  SGN B   4     -22.265  47.123  16.6470  0.00  0.00     0.000 S
ATOM     69   O  SGN B   4     -22.827  48.440  16.6120  0.00  0.00     0.000 OA
ATOM     70   O  SGN B   4     -23.102  46.180  15.9640  0.00  0.00     0.000 OA
ATOM     71   O  SGN B   4     -21.905  46.709  17.9700  0.00  0.00     0.000 OA
ENDBRANCH 59 68
BRANCH 62 72
ATOM     72   C  SGN B   4     -19.112  47.618  10.7090  0.00  0.00     0.000 C
ATOM     73   O  SGN B   4     -17.976  47.026  11.2660  0.00  0.00     0.000 O
ATOM     74  @S  SGN B   4     -17.173  45.837  10.7110  0.00  0.00     0.000 S
ATOM     75   O  SGN B   4     -16.728  46.196   9.4160  0.00  0.00     0.000 OA
ATOM     76   O  SGN B   4     -16.089  45.684  11.6350  0.00  0.00     0.000 OA
ATOM     77   O  SGN B   4     -18.082  44.742  10.6640  0.00  0.00     0.000 OA
ENDBRANCH 62 72
BRANCH 58 78
ATOM     78  O4  IDS B   5     -22.527  48.146  13.0630  0.00  0.00     0.000 O
BRANCH 78 82
ATOM     79  C1  IDS B   5     -25.667  49.042  11.9090  0.00  0.00     0.000 C
ATOM     80  C2  IDS B   5     -25.434  47.640  12.3830  0.00  0.00     0.000 C
ATOM     81  C3  IDS B   5     -24.200  46.980  11.7720  0.00  0.00     0.000 C
ATOM     82  C4  IDS B   5     -22.995  47.897  11.7550  0.00  0.00     0.000 C
ATOM     83  C5  IDS B   5     -23.424  49.193  11.1430  0.00  0.00     0.000 C
ATOM     84  O5  IDS B   5     -24.452  49.769  11.9260  0.00  0.00     0.000 O
ATOM     85   O  IDS B   5     -24.505  46.650  10.4390  0.00  0.00     0.000 O
ATOM     87  HD  IDS B   5     -23.838  47.112  10.7410  0.00  0.00     0.000 HD
BRANCH 80 87
ATOM     87   O  IDS B   5     -25.239  47.673  13.7420  0.00  0.00     0.000 O
ATOM     88  @S  IDS B   5     -26.303  47.890  14.8200  0.00  0.00     0.000 S
ATOM     89   O  IDS B   5     -27.306  46.926  14.5480  0.00  0.00     0.000 OA
ATOM     90   O  IDS B   5     -25.631  47.701  16.0570  0.00  0.00     0.000 OA
ATOM     91   O  IDS B   5     -26.757  49.227  14.6590  0.00  0.00     0.000 OA
ENDBRANCH 80 87
BRANCH 83 92
ATOM     92 @CA  IDS B   5     -22.274  50.159  10.8820  0.00  0.00     0.000 C
ATOM     93   O  IDS B   5     -21.636  50.117   9.8270  0.00  0.00     0.000 OA
ATOM     94   O  IDS B   5     -21.955  51.001  11.7300  0.00  0.00     0.000 OA
ENDBRANCH 83 92
BRANCH 79 95
ATOM     95  O4  SGN B   6     -26.246  49.014  10.6460  0.00  0.00     0.000 O
BRANCH 95 99
ATOM     96  C1  SGN B   6     -28.180  51.738   8.1880  0.00  0.00     0.000 C
ATOM     97  C2  SGN B   6     -26.829  52.180   8.7380  0.00  0.00     0.000 C
ATOM     98  C3  SGN B   6     -26.074  50.905   9.1150  0.00  0.00     0.000 C
ATOM     99  C4  SGN B   6     -26.874  50.223  10.2620  0.00  0.00     0.000 C
ATOM    100  C5  SGN B   6     -28.283  49.897   9.6870  0.00  0.00     0.000 C
ATOM    101  O5  SGN B   6     -28.923  51.067   9.1860  0.00  0.00     0.000 O
BRANCH 97 104
ATOM    102   N  SGN B   6     -26.700  53.083   7.5910  0.00  0.00     0.000 N
ATOM    104  HD  SGN B   6     -25.877  53.345   7.5180  0.00  0.00     0.000 HD
ATOM    104 @NS  SGN B   6     -26.267  54.656   7.8970  0.00  0.00     0.000 S
ATOM    105   O  SGN B   6     -26.066  54.787   9.3230  0.00  0.00     0.000 OA
ATOM    106   O  SGN B   6     -25.056  54.906   7.1500  0.00  0.00     0.000 OA
ATOM    107   O  SGN B   6     -27.373  55.470   7.4440  0.00  0.00     0.000 OA
ENDBRANCH 97 104
BRANCH 100 108
ATOM    108   C  SGN B   6     -29.271  49.261  10.6580  0.00  0.00     0.000 C
ATOM    109   O  SGN B   6     -30.576  49.667  10.3280  0.00  0.00     0.000 O
ATOM    110  @S  SGN B   6     -31.889  49.244  11.0810  0.00  0.00     0.000 S
ATOM    111   O  SGN B   6     -31.563  49.263  12.4870  0.00  0.00     0.000 OA
ATOM    112   O  SGN B   6     -32.897  50.235  10.7390  0.00  0.00     0.000 OA
ATOM    113   O  SGN B   6     -32.207  47.919  10.5990  0.00  0.00     0.000 OA
ENDBRANCH 100 108
ENDBRANCH 95 99
ENDBRANCH 79 95
ENDBRANCH 78 82
ENDBRANCH 58 78
ENDBRANCH 57 61
ENDBRANCH 41 57
ENDBRANCH 40 44
ENDBRANCH 20 40
ENDBRANCH 19 23
ENDBRANCH 1 19
TORSDOF 22
ENDMDL
MODEL 15
REMARK VINA RESULT:      -0.1      3.461      6.514
ROOT
ATOM      1  C1  IDS B   1     -25.366  59.239  11.0770  0.00  0.00     0.000 C
ATOM      2  C2  IDS B   1     -26.230  58.721  12.1960  0.00  0.00     0.000 C
ATOM      3  C3  IDS B   1     -26.670  59.762  13.2530  0.00  0.00     0.000 C
ATOM      4  C4  IDS B   1     -26.770  61.230  12.6930  0.00  0.00     0.000 C
ATOM      5  C5  IDS B   1     -25.805  61.484  11.5100  0.00  0.00     0.000 C
ATOM      6  O5  IDS B   1     -25.905  60.445  10.5740  0.00  0.00     0.000 O
ATOM      7   O  IDS B   1     -25.741  59.689  14.3300  0.00  0.00     0.000 O
ATOM      9  HD  IDS B   1     -26.114  60.471  14.3220  0.00  0.00     0.000 HD
ATOM      9   O  IDS B   1     -28.088  61.422  12.2280  0.00  0.00     0.000 O
ATOM     11  HD  IDS B   1     -28.460  62.204  12.2200  0.00  0.00     0.000 HD
ENDROOT
BRANCH 2 11
ATOM     11   O  IDS B   1     -27.393  58.177  11.6740  0.00  0.00     0.000 O
ATOM     12  @S  IDS B   1     -27.738  56.676  11.6930  0.00  0.00     0.000 S
ATOM     13   O  IDS B   1     -26.444  56.023  11.7300  0.00  0.00     0.000 OA
ATOM     14   O  IDS B   1     -28.514  56.442  12.8980  0.00  0.00     0.000 OA
ATOM     15   O  IDS B   1     -28.492  56.428  10.4810  0.00  0.00     0.000 OA
ENDBRANCH 2 11
BRANCH 5 16
ATOM     16 @CA  IDS B   1     -25.934  62.829  10.8010  0.00  0.00     0.000 C
ATOM     17   O  IDS B   1     -24.947  63.468  10.4450  0.00  0.00     0.000 OA
ATOM     18   O  IDS B   1     -27.042  63.301  10.5570  0.00  0.00     0.000 OA
ENDBRANCH 5 16
BRANCH 1 19
ATOM     19  O4  SGN B   2     -24.065  59.444  11.5880  0.00  0.00     0.000 O
BRANCH 19 23
ATOM     20  C1  SGN B   2     -20.426  59.240   9.7230  0.00  0.00     0.000 C
ATOM     21  C2  SGN B   2     -21.069  60.596   9.9160  0.00  0.00     0.000 C
ATOM     22  C3  SGN B   2     -22.014  60.536  11.0620  0.00  0.00     0.000 C
ATOM     23  C4  SGN B   2     -23.074  59.549  10.6300  0.00  0.00     0.000 C
ATOM     24  C5  SGN B   2     -22.375  58.236  10.5470  0.00  0.00     0.000 C
ATOM     25  O5  SGN B   2     -21.449  58.274   9.5230  0.00  0.00     0.000 O
ATOM     26   O  SGN B   2     -22.571  61.786  11.2660  0.00  0.00     0.000 O
ATOM     28  HD  SGN B   2     -23.076  62.489  11.3120  0.00  0.00     0.000 HD
BRANCH 21 30
ATOM     28   N  SGN B   2     -20.426  60.959   8.6870  0.00  0.00     0.000 N
ATOM     30  HD  SGN B   2     -19.771  60.392   8.7100  0.00  0.00     0.000 HD
ATOM     30 @NS  SGN B   2     -19.357  62.181   8.7480  0.00  0.00     0.000 S
ATOM     31   O  SGN B   2     -19.157  62.562  10.1060  0.00  0.00     0.000 OA
ATOM     32   O  SGN B   2     -18.191  61.627   8.1910  0.00  0.00     0.000 OA
ATOM     33   O  SGN B   2     -19.922  63.238   7.9980  0.00  0.00     0.000 OA
ENDBRANCH 21 30
BRANCH 24 34
ATOM     34   C  SGN B   2     -23.250  57.065  10.2900  0.00  0.00     0.000 C
ATOM     35   O  SGN B   2     -23.441  56.978   8.9230  0.00  0.00     0.000 O
ATOM     36  @S  SGN B   2     -24.104  55.788   8.2410  0.00  0.00     0.000 S
ATOM     37   O  SGN B   2     -25.507  56.145   8.1840  0.00  0.00     0.000 OA
ATOM     38   O  SGN B   2     -23.487  55.657   6.9410  0.00  0.00     0.000 OA
ATOM     39   O  SGN B   2     -23.821  54.648   9.1020  0.00  0.00     0.000 OA
ENDBRANCH 24 34
BRANCH 20 40
ATOM     40  O4  IDS B   3     -19.631  58.915  10.8220  0.00  0.00     0.000 O
BRANCH 40 44
ATOM     41  C1  IDS B   3     -17.053  57.783  12.9140  0.00  0.00     0.000 C
ATOM     42  C2  IDS B   3     -17.035  59.208  12.3630  0.00  0.00     0.000 C
ATOM     43  C3  IDS B   3     -17.327  59.342  10.8560  0.00  0.00     0.000 C
ATOM     44  C4  IDS B   3     -18.414  58.378  10.4250  0.00  0.00     0.000 C
ATOM     45  C5  IDS B   3     -18.226  56.983  11.0430  0.00  0.00     0.000 C
ATOM     46  O5  IDS B   3     -18.178  57.072  12.4210  0.00  0.00     0.000 O
ATOM     47   O  IDS B   3     -16.156  59.046  10.1240  0.00  0.00     0.000 O
ATOM     49  HD  IDS B   3     -16.928  59.413  10.2680  0.00  0.00     0.000 HD
BRANCH 42 49
ATOM     49   O  IDS B   3     -18.004  59.958  13.0390  0.00  0.00     0.000 O
ATOM     50   O  IDS B   3     -16.383  60.808  14.5210  0.00  0.00     0.000 OA
ATOM     51   O  IDS B   3     -18.101  62.241  13.7490  0.00  0.00     0.000 OA
ATOM     52   O  IDS B   3     -18.603  60.462  15.2180  0.00  0.00     0.000 OA
ATOM     53  @S  IDS B   3     -17.756  60.928  14.1970  0.00  0.00     0.000 S
ENDBRANCH 42 49
BRANCH 45 54
ATOM     54 @CA  IDS B   3     -19.263  55.941  10.6310  0.00  0.00     0.000 C
ATOM     55   O  IDS B   3     -19.231  55.412   9.5520  0.00  0.00     0.000 OA
ATOM     56   O  IDS B   3     -20.124  55.600  11.3720  0.00  0.00     0.000 OA
ENDBRANCH 45 54
BRANCH 41 57
ATOM     57  O4  SGN B   4     -15.861  57.145  12.5940  0.00  0.00     0.000 O
BRANCH 57 61
ATOM     58  C1  SGN B   4     -16.190  54.262  15.5220  0.00  0.00     0.000 C
ATOM     59  C2  SGN B   4     -15.596  55.587  15.9700  0.00  0.00     0.000 C
ATOM     60  C3  SGN B   4     -15.888  56.663  14.9280  0.00  0.00     0.000 C
ATOM     61  C4  SGN B   4     -15.383  56.243  13.5430  0.00  0.00     0.000 C
ATOM     62  C5  SGN B   4     -15.962  54.866  13.2310  0.00  0.00     0.000 C
ATOM     63  O5  SGN B   4     -15.653  53.935  14.2510  0.00  0.00     0.000 O
ATOM     64   O  SGN B   4     -15.227  57.853  15.3060  0.00  0.00     0.000 O
ATOM     66  HD  SGN B   4     -14.644  58.163  14.7460  0.00  0.00     0.000 HD
BRANCH 59 68
ATOM     66   N  SGN B   4     -14.871  55.411  17.2120  0.00  0.00     0.000 N
ATOM     68  HD  SGN B   4     -15.038  54.948  16.5000  0.00  0.00     0.000 HD
ATOM     68 @NS  SGN B   4     -15.689  55.158  18.6100  0.00  0.00     0.000 S
ATOM     69   O  SGN B   4     -16.875  55.963  18.5900  0.00  0.00     0.000 OA
ATOM     70   O  SGN B   4     -16.010  53.760  18.6370  0.00  0.00     0.000 OA
ATOM     71   O  SGN B   4     -14.771  55.550  19.6350  0.00  0.00     0.000 OA
ENDBRANCH 59 68
BRANCH 62 72
ATOM     72   C  SGN B   4     -15.431  54.282  11.9310  0.00  0.00     0.000 C
ATOM     73   O  SGN B   4     -15.243  52.921  12.1810  0.00  0.00     0.000 O
ATOM     74  @S  SGN B   4     -15.372  51.758  11.1820  0.00  0.00     0.000 S
ATOM     75   O  SGN B   4     -14.459  52.005  10.1270  0.00  0.00     0.000 OA
ATOM     76   O  SGN B   4     -15.020  50.599  11.9440  0.00  0.00     0.000 OA
ATOM     77   O  SGN B   4     -16.719  51.790  10.7210  0.00  0.00     0.000 OA
ENDBRANCH 62 72
BRANCH 58 78
ATOM     78  O4  IDS B   5     -17.600  54.341  15.5040  0.00  0.00     0.000 O
BRANCH 78 82
ATOM     79  C1  IDS B   5     -21.038  54.074  15.8390  0.00  0.00     0.000 C
ATOM     80  C2  IDS B   5     -20.207  54.400  17.0430  0.00  0.00     0.000 C
ATOM     81  C3  IDS B   5     -19.021  53.462  17.2460  0.00  0.00     0.000 C
ATOM     82  C4  IDS B   5     -18.268  53.185  15.9610  0.00  0.00     0.000 C
ATOM     83  C5  IDS B   5     -19.271  52.770  14.9320  0.00  0.00     0.000 C
ATOM     84  O5  IDS B   5     -20.199  53.818  14.7270  0.00  0.00     0.000 O
ATOM     85   O  IDS B   5     -19.519  52.235  17.7220  0.00  0.00     0.000 O
ATOM     87  HD  IDS B   5     -19.007  52.380  17.0390  0.00  0.00     0.000 HD
BRANCH 80 87
ATOM     87   O  IDS B   5     -19.696  55.664  16.8830  0.00  0.00     0.000 O
ATOM     88  @S  IDS B   5     -20.099  56.926  17.6500  0.00  0.00     0.000 S
ATOM     89   O  IDS B   5     -19.978  56.578  19.0200  0.00  0.00     0.000 OA
ATOM     90   O  IDS B   5     -19.194  57.934  17.2220  0.00  0.00     0.000 OA
ATOM     91   O  IDS B   5     -21.436  57.210  17.2630  0.00  0.00     0.000 OA
ENDBRANCH 80 87
BRANCH 83 92
ATOM     92 @CA  IDS B   5     -18.648  52.275  13.6330  0.00  0.00     0.000 C
ATOM     93   O  IDS B   5     -18.856  52.859  12.5660  0.00  0.00     0.000 OA
ATOM     94   O  IDS B   5     -17.924  51.273  13.6240  0.00  0.00     0.000 OA
ENDBRANCH 83 92
BRANCH 79 95
ATOM     95  O4  SGN B   6     -21.871  53.002  16.1280  0.00  0.00     0.000 O
BRANCH 95 99
ATOM     96  C1  SGN B   6     -24.991  51.037  14.2250  0.00  0.00     0.000 C
ATOM     97  C2  SGN B   6     -23.630  50.942  13.5450  0.00  0.00     0.000 C
ATOM     98  C3  SGN B   6     -22.583  51.217  14.6250  0.00  0.00     0.000 C
ATOM     99  C4  SGN B   6     -22.794  52.682  15.1020  0.00  0.00     0.000 C
ATOM    100  C5  SGN B   6     -24.236  52.758  15.6810  0.00  0.00     0.000 C
ATOM    101  O5  SGN B   6     -25.204  52.345  14.7210  0.00  0.00     0.000 O
BRANCH 97 104
ATOM    102   N  SGN B   6     -23.803  50.980  12.0900  0.00  0.00     0.000 N
ATOM    104  HD  SGN B   6     -24.553  50.604  11.8760  0.00  0.00     0.000 HD
ATOM    104 @NS  SGN B   6     -23.839  49.531  11.2830  0.00  0.00     0.000 S
ATOM    105   O  SGN B   6     -23.719  48.477  12.2660  0.00  0.00     0.000 OA
ATOM    106   O  SGN B   6     -25.100  49.479  10.5780  0.00  0.00     0.000 OA
ATOM    107   O  SGN B   6     -22.705  49.545  10.3850  0.00  0.00     0.000 OA
ENDBRANCH 97 104
BRANCH 100 108
ATOM    108   C  SGN B   6     -24.690  54.128  16.1710  0.00  0.00     0.000 C
ATOM    109   O  SGN B   6     -24.374  55.098  15.2040  0.00  0.00     0.000 O
ATOM    110  @S  SGN B   6     -24.665  56.639  15.3170  0.00  0.00     0.000 S
ATOM    111   O  SGN B   6     -24.373  56.998  16.6840  0.00  0.00     0.000 OA
ATOM    112   O  SGN B   6     -23.772  57.296  14.3760  0.00  0.00     0.000 OA
ATOM    113   O  SGN B   6     -26.062  56.799  14.9830  0.00  0.00     0.000 OA
ENDBRANCH 100 108
ENDBRANCH 95 99
ENDBRANCH 79 95
ENDBRANCH 78 82
ENDBRANCH 58 78
ENDBRANCH 57 61
ENDBRANCH 41 57
ENDBRANCH 40 44
ENDBRANCH 20 40
ENDBRANCH 19 23
ENDBRANCH 1 19
TORSDOF 22
ENDMDL
MODEL 16
REMARK VINA RESULT:      -0.1      2.608      9.052
ROOT
ATOM      1  C1  IDS B   1     -22.598  47.603  11.7560  0.00  0.00     0.000 C
ATOM      2  C2  IDS B   1     -23.708  47.352  12.7430  0.00  0.00     0.000 C
ATOM      3  C3  IDS B   1     -24.500  48.598  13.2070  0.00  0.00     0.000 C
ATOM      4  C4  IDS B   1     -24.537  49.757  12.1430  0.00  0.00     0.000 C
ATOM      5  C5  IDS B   1     -23.294  49.759  11.2200  0.00  0.00     0.000 C
ATOM      6  O5  IDS B   1     -23.053  48.466  10.7340  0.00  0.00     0.000 O
ATOM      7   O  IDS B   1     -23.913  49.041  14.4270  0.00  0.00     0.000 O
ATOM      9  HD  IDS B   1     -24.320  49.703  14.0440  0.00  0.00     0.000 HD
ATOM      9   O  IDS B   1     -25.677  49.564  11.3370  0.00  0.00     0.000 O
ATOM     11  HD  IDS B   1     -26.084  50.226  10.9540  0.00  0.00     0.000 HD
ENDROOT
BRANCH 2 11
ATOM     11   O  IDS B   1     -24.635  46.482  12.1910  0.00  0.00     0.000 O
ATOM     12  @S  IDS B   1     -25.856  45.917  12.9430  0.00  0.00     0.000 S
ATOM     13   O  IDS B   1     -25.450  45.947  14.3340  0.00  0.00     0.000 OA
ATOM     14   O  IDS B   1     -26.965  46.813  12.6670  0.00  0.00     0.000 OA
ATOM     15   O  IDS B   1     -26.064  44.584  12.4150  0.00  0.00     0.000 OA
ENDBRANCH 2 11
BRANCH 5 16
ATOM     16 @CA  IDS B   1     -23.308  50.751  10.0600  0.00  0.00     0.000 C
ATOM     17   O  IDS B   1     -22.290  51.013   9.4240  0.00  0.00     0.000 OA
ATOM     18   O  IDS B   1     -24.352  51.305   9.7260  0.00  0.00     0.000 OA
ENDBRANCH 5 16
BRANCH 1 19
ATOM     19  O4  SGN B   2     -21.514  48.177  12.4550  0.00  0.00     0.000 O
BRANCH 19 23
ATOM     20  C1  SGN B   2     -17.453  47.807  12.0890  0.00  0.00     0.000 C
ATOM     21  C2  SGN B   2     -18.272  48.087  10.8480  0.00  0.00     0.000 C
ATOM     22  C3  SGN B   2     -19.547  48.746  11.2350  0.00  0.00     0.000 C
ATOM     23  C4  SGN B   2     -20.267  47.716  12.0750  0.00  0.00     0.000 C
ATOM     24  C5  SGN B   2     -19.440  47.566  13.3050  0.00  0.00     0.000 C
ATOM     25  O5  SGN B   2     -18.223  47.003  12.9720  0.00  0.00     0.000 O
ATOM     26   O  SGN B   2     -20.279  49.040  10.0980  0.00  0.00     0.000 O
ATOM     28  HD  SGN B   2     -20.843  49.073   9.4420  0.00  0.00     0.000 HD
BRANCH 21 30
ATOM     28   N  SGN B   2     -16.997  47.584  10.4280  0.00  0.00     0.000 N
ATOM     30  HD  SGN B   2     -16.491  48.171  10.8140  0.00  0.00     0.000 HD
ATOM     30 @NS  SGN B   2     -16.450  48.081   8.9810  0.00  0.00     0.000 S
ATOM     31   O  SGN B   2     -17.325  49.081   8.4670  0.00  0.00     0.000 OA
ATOM     32   O  SGN B   2     -15.180  48.607   9.2710  0.00  0.00     0.000 OA
ATOM     33   O  SGN B   2     -16.436  46.938   8.1490  0.00  0.00     0.000 OA
ENDBRANCH 21 30
BRANCH 24 34
ATOM     34   C  SGN B   2     -20.029  46.714  14.3680  0.00  0.00     0.000 C
ATOM     35   O  SGN B   2     -20.576  47.555  15.3200  0.00  0.00     0.000 O
ATOM     36  @S  SGN B   2     -21.461  47.068  16.4630  0.00  0.00     0.000 S
ATOM     37   O  SGN B   2     -20.534  46.815  17.5480  0.00  0.00     0.000 OA
ATOM     38   O  SGN B   2     -22.401  48.129  16.7400  0.00  0.00     0.000 OA
ATOM     39   O  SGN B   2     -22.115  45.871  15.9540  0.00  0.00     0.000 OA
ENDBRANCH 24 34
BRANCH 20 40
ATOM     40  O4  IDS B   3     -17.065  49.000  12.6980  0.00  0.00     0.000 O
BRANCH 40 44
ATOM     41  C1  IDS B   3     -14.877  51.365  14.0850  0.00  0.00     0.000 C
ATOM     42  C2  IDS B   3     -14.424  50.473  12.9300  0.00  0.00     0.000 C
ATOM     43  C3  IDS B   3     -14.753  48.975  13.0780  0.00  0.00     0.000 C
ATOM     44  C4  IDS B   3     -16.124  48.778  13.6940  0.00  0.00     0.000 C
ATOM     45  C5  IDS B   3     -16.369  49.731  14.8740  0.00  0.00     0.000 C
ATOM     46  O5  IDS B   3     -16.204  51.043  14.4730  0.00  0.00     0.000 O
ATOM     47   O  IDS B   3     -13.797  48.367  13.9210  0.00  0.00     0.000 O
ATOM     49  HD  IDS B   3     -14.392  48.397  13.2920  0.00  0.00     0.000 HD
BRANCH 42 49
ATOM     49   O  IDS B   3     -15.043  50.917  11.7570  0.00  0.00     0.000 O
ATOM     50   O  IDS B   3     -13.648  52.813  11.6790  0.00  0.00     0.000 OA
ATOM     51   O  IDS B   3     -14.199  51.706   9.6610  0.00  0.00     0.000 OA
ATOM     52   O  IDS B   3     -15.851  52.892  10.8580  0.00  0.00     0.000 OA
ATOM     53  @S  IDS B   3     -14.659  52.153  10.9380  0.00  0.00     0.000 S
ENDBRANCH 42 49
BRANCH 45 54
ATOM     54 @CA  IDS B   3     -17.717  49.573  15.5730  0.00  0.00     0.000 C
ATOM     55   O  IDS B   3     -17.849  48.867  16.5360  0.00  0.00     0.000 OA
ATOM     56   O  IDS B   3     -18.678  50.161  15.2010  0.00  0.00     0.000 OA
ENDBRANCH 45 54
BRANCH 41 57
ATOM     57  O4  SGN B   4     -13.987  51.242  15.1450  0.00  0.00     0.000 O
BRANCH 57 61
ATOM     58  C1  SGN B   4     -15.264  54.772  16.8490  0.00  0.00     0.000 C
ATOM     59  C2  SGN B   4     -13.999  54.867  16.0140  0.00  0.00     0.000 C
ATOM     60  C3  SGN B   4     -13.860  53.622  15.1420  0.00  0.00     0.000 C
ATOM     61  C4  SGN B   4     -13.896  52.346  15.9910  0.00  0.00     0.000 C
ATOM     62  C5  SGN B   4     -15.154  52.395  16.8550  0.00  0.00     0.000 C
ATOM     63  O5  SGN B   4     -15.206  53.584  17.6200  0.00  0.00     0.000 O
ATOM     64   O  SGN B   4     -12.621  53.677  14.4650  0.00  0.00     0.000 O
ATOM     66  HD  SGN B   4     -12.068  53.028  14.6220  0.00  0.00     0.000 HD
BRANCH 59 68
ATOM     66   N  SGN B   4     -13.258  56.072  16.3270  0.00  0.00     0.000 N
ATOM     68  HD  SGN B   4     -13.749  55.497  16.7490  0.00  0.00     0.000 HD
ATOM     68 @NS  SGN B   4     -13.846  57.536  15.8800  0.00  0.00     0.000 S
ATOM     69   O  SGN B   4     -14.464  57.399  14.5940  0.00  0.00     0.000 OA
ATOM     70   O  SGN B   4     -14.804  57.904  16.8820  0.00  0.00     0.000 OA
ATOM     71   O  SGN B   4     -12.696  58.387  15.8540  0.00  0.00     0.000 OA
ENDBRANCH 59 68
BRANCH 62 72
ATOM     72   C  SGN B   4     -15.239  51.238  17.8390  0.00  0.00     0.000 C
ATOM     73   O  SGN B   4     -14.472  51.625  18.9390  0.00  0.00     0.000 O
ATOM     74  @S  SGN B   4     -14.690  51.244  20.4140  0.00  0.00     0.000 S
ATOM     75   O  SGN B   4     -14.652  49.831  20.4960  0.00  0.00     0.000 OA
ATOM     76   O  SGN B   4     -13.594  51.858  21.1010  0.00  0.00     0.000 OA
ATOM     77   O  SGN B   4     -15.976  51.750  20.7590  0.00  0.00     0.000 OA
ENDBRANCH 62 72
BRANCH 58 78
ATOM     78  O4  IDS B   5     -16.404  54.815  16.0140  0.00  0.00     0.000 O
BRANCH 78 82
ATOM     79  C1  IDS B   5     -19.401  55.295  14.3470  0.00  0.00     0.000 C
ATOM     80  C2  IDS B   5     -18.365  56.377  14.3170  0.00  0.00     0.000 C
ATOM     81  C3  IDS B   5     -17.817  56.744  15.6930  0.00  0.00     0.000 C
ATOM     82  C4  IDS B   5     -17.502  55.529  16.5400  0.00  0.00     0.000 C
ATOM     83  C5  IDS B   5     -18.706  54.642  16.5230  0.00  0.00     0.000 C
ATOM     84  O5  IDS B   5     -18.979  54.241  15.1930  0.00  0.00     0.000 O
ATOM     85   O  IDS B   5     -18.806  57.487  16.3650  0.00  0.00     0.000 O
ATOM     87  HD  IDS B   5     -18.392  56.775  16.6320  0.00  0.00     0.000 HD
BRANCH 80 87
ATOM     87   O  IDS B   5     -17.303  55.933  13.5690  0.00  0.00     0.000 O
ATOM     88  @S  IDS B   5     -16.928  56.370  12.1500  0.00  0.00     0.000 S
ATOM     89   O  IDS B   5     -16.860  57.785  12.2070  0.00  0.00     0.000 OA
ATOM     90   O  IDS B   5     -15.687  55.735  11.8750  0.00  0.00     0.000 OA
ATOM     91   O  IDS B   5     -17.969  55.896  11.3060  0.00  0.00     0.000 OA
ENDBRANCH 80 87
BRANCH 83 92
ATOM     92 @CA  IDS B   5     -18.613  53.463  17.4840  0.00  0.00     0.000 C
ATOM     93   O  IDS B   5     -18.989  52.338  17.1460  0.00  0.00     0.000 OA
ATOM     94   O  IDS B   5     -18.163  53.615  18.6250  0.00  0.00     0.000 OA
ENDBRANCH 83 92
BRANCH 79 95
ATOM     95  O4  SGN B   6     -20.620  55.831  14.7430  0.00  0.00     0.000 O
BRANCH 95 99
ATOM     96  C1  SGN B   6     -24.605  54.702  14.5220  0.00  0.00     0.000 C
ATOM     97  C2  SGN B   6     -23.692  53.770  15.3080  0.00  0.00     0.000 C
ATOM     98  C3  SGN B   6     -22.480  54.601  15.7310  0.00  0.00     0.000 C
ATOM     99  C4  SGN B   6     -21.744  55.030  14.4300  0.00  0.00     0.000 C
ATOM    100  C5  SGN B   6     -22.754  55.880  13.6080  0.00  0.00     0.000 C
ATOM    101  O5  SGN B   6     -23.955  55.158  13.3510  0.00  0.00     0.000 O
BRANCH 97 104
ATOM    102   N  SGN B   6     -23.901  52.320  15.2490  0.00  0.00     0.000 N
ATOM    104  HD  SGN B   6     -24.691  52.153  14.9370  0.00  0.00     0.000 HD
ATOM    104 @NS  SGN B   6     -25.087  51.675  16.2130  0.00  0.00     0.000 S
ATOM    105   O  SGN B   6     -25.719  52.767  16.9220  0.00  0.00     0.000 OA
ATOM    106   O  SGN B   6     -26.008  50.988  15.3370  0.00  0.00     0.000 OA
ATOM    107   O  SGN B   6     -24.417  50.775  17.1250  0.00  0.00     0.000 OA
ENDBRANCH 97 104
BRANCH 100 108
ATOM    108   C  SGN B   6     -22.266  56.376  12.2520  0.00  0.00     0.000 C
ATOM    109   O  SGN B   6     -22.751  55.527  11.2420  0.00  0.00     0.000 O
ATOM    110  @S  SGN B   6     -22.475  55.678   9.7020  0.00  0.00     0.000 S
ATOM    111   O  SGN B   6     -21.090  56.065   9.5830  0.00  0.00     0.000 OA
ATOM    112   O  SGN B   6     -22.732  54.375   9.1090  0.00  0.00     0.000 OA
ATOM    113   O  SGN B   6     -23.384  56.703   9.2400  0.00  0.00     0.000 OA
ENDBRANCH 100 108
ENDBRANCH 95 99
ENDBRANCH 79 95
ENDBRANCH 78 82
ENDBRANCH 58 78
ENDBRANCH 57 61
ENDBRANCH 41 57
ENDBRANCH 40 44
ENDBRANCH 20 40
ENDBRANCH 19 23
ENDBRANCH 1 19
TORSDOF 22
ENDMDL
MODEL 17
REMARK VINA RESULT:       0.1      2.740      8.821
ROOT
ATOM      1  C1  IDS B   1     -22.682  49.488  11.3140  0.00  0.00     0.000 C
ATOM      2  C2  IDS B   1     -23.818  49.615  12.2950  0.00  0.00     0.000 C
ATOM      3  C3  IDS B   1     -24.104  51.040  12.8260  0.00  0.00     0.000 C
ATOM      4  C4  IDS B   1     -23.700  52.182  11.8200  0.00  0.00     0.000 C
ATOM      5  C5  IDS B   1     -22.532  51.773  10.8900  0.00  0.00     0.000 C
ATOM      6  O5  IDS B   1     -22.776  50.507  10.3390  0.00  0.00     0.000 O
ATOM      7   O  IDS B   1     -23.410  51.177  14.0610  0.00  0.00     0.000 O
ATOM      9  HD  IDS B   1     -23.541  51.960  13.7150  0.00  0.00     0.000 HD
ATOM      9   O  IDS B   1     -24.822  52.460  11.0130  0.00  0.00     0.000 O
ATOM     11  HD  IDS B   1     -24.953  53.243  10.6670  0.00  0.00     0.000 HD
ENDROOT
BRANCH 2 11
ATOM     11   O  IDS B   1     -24.993  49.173  11.7070  0.00  0.00     0.000 O
ATOM     12  @S  IDS B   1     -25.653  47.811  11.9950  0.00  0.00     0.000 S
ATOM     13   O  IDS B   1     -24.547  46.969  12.4050  0.00  0.00     0.000 OA
ATOM     14   O  IDS B   1     -26.612  48.030  13.0640  0.00  0.00     0.000 OA
ATOM     15   O  IDS B   1     -26.279  47.403  10.7530  0.00  0.00     0.000 OA
ENDBRANCH 2 11
BRANCH 5 16
ATOM     16 @CA  IDS B   1     -22.167  52.755   9.7810  0.00  0.00     0.000 C
ATOM     17   O  IDS B   1     -21.210  52.560   9.0360  0.00  0.00     0.000 OA
ATOM     18   O  IDS B   1     -22.839  53.768   9.5990  0.00  0.00     0.000 OA
ENDBRANCH 5 16
BRANCH 1 19
ATOM     19  O4  SGN B   2     -21.471  49.590  12.0330  0.00  0.00     0.000 O
BRANCH 19 23
ATOM     20  C1  SGN B   2     -17.955  47.498  11.9050  0.00  0.00     0.000 C
ATOM     21  C2  SGN B   2     -18.471  48.129  10.6310  0.00  0.00     0.000 C
ATOM     22  C3  SGN B   2     -19.363  49.269  10.9700  0.00  0.00     0.000 C
ATOM     23  C4  SGN B   2     -20.521  48.640  11.7100  0.00  0.00     0.000 C
ATOM     24  C5  SGN B   2     -19.939  48.122  12.9790  0.00  0.00     0.000 C
ATOM     25  O5  SGN B   2     -19.063  47.093  12.6960  0.00  0.00     0.000 O
ATOM     26   O  SGN B   2     -19.803  49.873   9.8050  0.00  0.00     0.000 O
ATOM     28  HD  SGN B   2     -20.244  50.161   9.1180  0.00  0.00     0.000 HD
BRANCH 21 30
ATOM     28   N  SGN B   2     -17.091  47.825  10.3900  0.00  0.00     0.000 N
ATOM     30  HD  SGN B   2     -16.810  48.626  10.2140  0.00  0.00     0.000 HD
ATOM     30 @NS  SGN B   2     -16.690  47.366   8.8840  0.00  0.00     0.000 S
ATOM     31   O  SGN B   2     -17.823  47.509   8.0320  0.00  0.00     0.000 OA
ATOM     32   O  SGN B   2     -15.663  48.257   8.5290  0.00  0.00     0.000 OA
ATOM     33   O  SGN B   2     -16.289  46.013   8.9760  0.00  0.00     0.000 OA
ENDBRANCH 21 30
BRANCH 24 34
ATOM     34   C  SGN B   2     -20.921  47.592  13.9590  0.00  0.00     0.000 C
ATOM     35   O  SGN B   2     -21.081  48.546  14.9470  0.00  0.00     0.000 O
ATOM     36  @S  SGN B   2     -22.161  48.472  16.0200  0.00  0.00     0.000 S
ATOM     37   O  SGN B   2     -21.526  47.771  17.1180  0.00  0.00     0.000 OA
ATOM     38   O  SGN B   2     -22.526  49.833  16.3370  0.00  0.00     0.000 OA
ATOM     39   O  SGN B   2     -23.258  47.736  15.4060  0.00  0.00     0.000 OA
ENDBRANCH 24 34
BRANCH 20 40
ATOM     40  O4  IDS B   3     -17.138  48.392  12.5970  0.00  0.00     0.000 O
BRANCH 40 44
ATOM     41  C1  IDS B   3     -14.312  49.309  14.4600  0.00  0.00     0.000 C
ATOM     42  C2  IDS B   3     -14.262  48.111  13.5140  0.00  0.00     0.000 C
ATOM     43  C3  IDS B   3     -15.447  47.131  13.6170  0.00  0.00     0.000 C
ATOM     44  C4  IDS B   3     -16.750  47.876  13.8260  0.00  0.00     0.000 C
ATOM     45  C5  IDS B   3     -16.608  49.011  14.8530  0.00  0.00     0.000 C
ATOM     46  O5  IDS B   3     -15.610  49.884  14.4680  0.00  0.00     0.000 O
ATOM     47   O  IDS B   3     -15.247  46.269  14.7170  0.00  0.00     0.000 O
ATOM     49  HD  IDS B   3     -15.560  46.507  13.9450  0.00  0.00     0.000 HD
BRANCH 42 49
ATOM     49   O  IDS B   3     -14.231  48.585  12.1980  0.00  0.00     0.000 O
ATOM     50   O  IDS B   3     -11.876  48.528  12.1800  0.00  0.00     0.000 OA
ATOM     51   O  IDS B   3     -13.059  47.881  10.2340  0.00  0.00     0.000 OA
ATOM     52   O  IDS B   3     -13.062  50.135  10.9360  0.00  0.00     0.000 OA
ATOM     53  @S  IDS B   3     -12.983  48.790  11.3350  0.00  0.00     0.000 S
ENDBRANCH 42 49
BRANCH 45 54
ATOM     54 @CA  IDS B   3     -17.888  49.790  15.1470  0.00  0.00     0.000 C
ATOM     55   O  IDS B   3     -18.535  49.588  16.1390  0.00  0.00     0.000 OA
ATOM     56   O  IDS B   3     -18.276  50.639  14.4140  0.00  0.00     0.000 OA
ENDBRANCH 45 54
BRANCH 41 57
ATOM     57  O4  SGN B   4     -13.917  48.915  15.7330  0.00  0.00     0.000 O
BRANCH 57 61
ATOM     58  C1  SGN B   4     -14.292  52.665  17.4040  0.00  0.00     0.000 C
ATOM     59  C2  SGN B   4     -12.973  52.389  16.7010  0.00  0.00     0.000 C
ATOM     60  C3  SGN B   4     -13.110  51.156  15.8120  0.00  0.00     0.000 C
ATOM     61  C4  SGN B   4     -13.599  49.946  16.6160  0.00  0.00     0.000 C
ATOM     62  C5  SGN B   4     -14.872  50.357  17.3520  0.00  0.00     0.000 C
ATOM     63  O5  SGN B   4     -14.658  51.511  18.1420  0.00  0.00     0.000 O
ATOM     64   O  SGN B   4     -11.844  50.849  15.2630  0.00  0.00     0.000 O
ATOM     66  HD  SGN B   4     -11.521  50.069  15.4550  0.00  0.00     0.000 HD
BRANCH 59 68
ATOM     66   N  SGN B   4     -11.955  53.328  17.1250  0.00  0.00     0.000 N
ATOM     68  HD  SGN B   4     -12.633  52.921  17.4760  0.00  0.00     0.000 HD
ATOM     68 @NS  SGN B   4     -12.045  54.899  16.6620  0.00  0.00     0.000 S
ATOM     69   O  SGN B   4     -12.533  54.944  15.3150  0.00  0.00     0.000 OA
ATOM     70   O  SGN B   4     -12.959  55.531  17.5690  0.00  0.00     0.000 OA
ATOM     71   O  SGN B   4     -10.702  55.381  16.7800  0.00  0.00     0.000 OA
ENDBRANCH 59 68
BRANCH 62 72
ATOM     72   C  SGN B   4     -15.388  49.276  18.2880  0.00  0.00     0.000 C
ATOM     73   O  SGN B   4     -15.710  49.933  19.4780  0.00  0.00     0.000 O
ATOM     74  @S  SGN B   4     -16.816  49.564  20.4820  0.00  0.00     0.000 S
ATOM     75   O  SGN B   4     -16.564  48.241  20.9210  0.00  0.00     0.000 OA
ATOM     76   O  SGN B   4     -16.668  50.523  21.5350  0.00  0.00     0.000 OA
ATOM     77   O  SGN B   4     -18.040  49.647  19.7590  0.00  0.00     0.000 OA
ENDBRANCH 62 72
BRANCH 58 78
ATOM     78  O4  IDS B   5     -15.278  53.035  16.4620  0.00  0.00     0.000 O
BRANCH 78 82
ATOM     79  C1  IDS B   5     -17.864  54.320  14.5490  0.00  0.00     0.000 C
ATOM     80  C2  IDS B   5     -16.492  54.910  14.4180  0.00  0.00     0.000 C
ATOM     81  C3  IDS B   5     -15.847  55.271  15.7540  0.00  0.00     0.000 C
ATOM     82  C4  IDS B   5     -16.020  54.188  16.7990  0.00  0.00     0.000 C
ATOM     83  C5  IDS B   5     -17.471  53.830  16.8410  0.00  0.00     0.000 C
ATOM     84  O5  IDS B   5     -17.876  53.343  15.5750  0.00  0.00     0.000 O
ATOM     85   O  IDS B   5     -16.477  56.433  16.2350  0.00  0.00     0.000 O
ATOM     87  HD  IDS B   5     -16.366  55.674  16.6370  0.00  0.00     0.000 HD
BRANCH 80 87
ATOM     87   O  IDS B   5     -15.680  53.980  13.8190  0.00  0.00     0.000 O
ATOM     88  @S  IDS B   5     -15.133  54.018  12.3900  0.00  0.00     0.000 S
ATOM     89   O  IDS B   5     -14.507  55.285  12.2690  0.00  0.00     0.000 OA
ATOM     90   O  IDS B   5     -14.242  52.915  12.2970  0.00  0.00     0.000 OA
ATOM     91   O  IDS B   5     -16.259  53.868  11.5350  0.00  0.00     0.000 OA
ENDBRANCH 80 87
BRANCH 83 92
ATOM     92 @CA  IDS B   5     -17.837  52.883  17.9780  0.00  0.00     0.000 C
ATOM     93   O  IDS B   5     -17.225  52.910  19.0480  0.00  0.00     0.000 OA
ATOM     94   O  IDS B   5     -18.755  52.065  17.8450  0.00  0.00     0.000 OA
ENDBRANCH 83 92
BRANCH 79 95
ATOM     95  O4  SGN B   6     -18.785  55.334  14.7780  0.00  0.00     0.000 O
BRANCH 95 99
ATOM     96  C1  SGN B   6     -22.801  55.952  13.9440  0.00  0.00     0.000 C
ATOM     97  C2  SGN B   6     -22.497  54.943  15.0450  0.00  0.00     0.000 C
ATOM     98  C3  SGN B   6     -21.094  55.268  15.5600  0.00  0.00     0.000 C
ATOM     99  C4  SGN B   6     -20.109  55.024  14.3810  0.00  0.00     0.000 C
ATOM    100  C5  SGN B   6     -20.532  55.993  13.2400  0.00  0.00     0.000 C
ATOM    101  O5  SGN B   6     -21.894  55.799  12.8710  0.00  0.00     0.000 O
BRANCH 97 104
ATOM    102   N  SGN B   6     -23.950  55.091  15.1700  0.00  0.00     0.000 N
ATOM    104  HD  SGN B   6     -24.162  55.186  16.0040  0.00  0.00     0.000 HD
ATOM    104 @NS  SGN B   6     -24.776  53.907  15.9870  0.00  0.00     0.000 S
ATOM    105   O  SGN B   6     -23.807  52.940  16.4570  0.00  0.00     0.000 OA
ATOM    106   O  SGN B   6     -25.469  54.557  17.0750  0.00  0.00     0.000 OA
ATOM    107   O  SGN B   6     -25.683  53.317  15.0280  0.00  0.00     0.000 OA
ENDBRANCH 97 104
BRANCH 100 108
ATOM    108   C  SGN B   6     -19.729  55.898  11.9480  0.00  0.00     0.000 C
ATOM    109   O  SGN B   6     -20.522  56.334  10.8720  0.00  0.00     0.000 O
ATOM    110  @S  SGN B   6     -20.078  56.389   9.3660  0.00  0.00     0.000 S
ATOM    111   O  SGN B   6     -19.312  55.189   9.1340  0.00  0.00     0.000 OA
ATOM    112   O  SGN B   6     -21.300  56.420   8.5780  0.00  0.00     0.000 OA
ATOM    113   O  SGN B   6     -19.287  57.592   9.2350  0.00  0.00     0.000 OA
ENDBRANCH 100 108
ENDBRANCH 95 99
ENDBRANCH 79 95
ENDBRANCH 78 82
ENDBRANCH 58 78
ENDBRANCH 57 61
ENDBRANCH 41 57
ENDBRANCH 40 44
ENDBRANCH 20 40
ENDBRANCH 19 23
ENDBRANCH 1 19
TORSDOF 22
ENDMDL
MODEL 18
REMARK VINA RESULT:       0.2      3.155      6.233
ROOT
ATOM      1  C1  IDS B   1     -24.995  57.420  10.1480  0.00  0.00     0.000 C
ATOM      2  C2  IDS B   1     -25.690  56.108  10.4010  0.00  0.00     0.000 C
ATOM      3  C3  IDS B   1     -26.321  55.931  11.8020  0.00  0.00     0.000 C
ATOM      4  C4  IDS B   1     -26.763  57.285  12.4730  0.00  0.00     0.000 C
ATOM      5  C5  IDS B   1     -25.913  58.490  12.0020  0.00  0.00     0.000 C
ATOM      6  O5  IDS B   1     -25.804  58.486  10.6040  0.00  0.00     0.000 O
ATOM      7   O  IDS B   1     -25.370  55.246  12.6110  0.00  0.00     0.000 O
ATOM      9  HD  IDS B   1     -25.908  55.698  13.1170  0.00  0.00     0.000 HD
ATOM      9   O  IDS B   1     -28.103  57.528  12.1050  0.00  0.00     0.000 O
ATOM     11  HD  IDS B   1     -28.641  57.980  12.6110  0.00  0.00     0.000 HD
ENDROOT
BRANCH 2 11
ATOM     11   O  IDS B   1     -26.715  55.940   9.4840  0.00  0.00     0.000 O
ATOM     12  @S  IDS B   1     -26.928  54.671   8.6360  0.00  0.00     0.000 S
ATOM     13   O  IDS B   1     -25.600  54.099   8.5300  0.00  0.00     0.000 OA
ATOM     14   O  IDS B   1     -27.842  53.822   9.3780  0.00  0.00     0.000 OA
ATOM     15   O  IDS B   1     -27.479  55.126   7.3750  0.00  0.00     0.000 OA
ENDBRANCH 2 11
BRANCH 5 16
ATOM     16 @CA  IDS B   1     -26.360  59.868  12.4800  0.00  0.00     0.000 C
ATOM     17   O  IDS B   1     -26.658  60.759  11.6890  0.00  0.00     0.000 OA
ATOM     18   O  IDS B   1     -26.444  60.114  13.6810  0.00  0.00     0.000 OA
ENDBRANCH 5 16
BRANCH 1 19
ATOM     19  O4  SGN B   2     -23.759  57.399  10.8320  0.00  0.00     0.000 O
BRANCH 19 23
ATOM     20  C1  SGN B   2     -19.964  58.521   9.7840  0.00  0.00     0.000 C
ATOM     21  C2  SGN B   2     -21.007  59.596   9.9980  0.00  0.00     0.000 C
ATOM     22  C3  SGN B   2     -22.072  59.080  10.8970  0.00  0.00     0.000 C
ATOM     23  C4  SGN B   2     -22.697  57.937  10.1310  0.00  0.00     0.000 C
ATOM     24  C5  SGN B   2     -21.633  56.899  10.0410  0.00  0.00     0.000 C
ATOM     25  O5  SGN B   2     -20.600  57.367   9.2520  0.00  0.00     0.000 O
ATOM     26   O  SGN B   2     -23.005  60.076  11.1270  0.00  0.00     0.000 O
ATOM     28  HD  SGN B   2     -23.697  60.596  11.1480  0.00  0.00     0.000 HD
BRANCH 21 30
ATOM     28   N  SGN B   2     -19.995  60.193   9.1770  0.00  0.00     0.000 N
ATOM     30  HD  SGN B   2     -19.301  59.983   9.6500  0.00  0.00     0.000 HD
ATOM     30 @NS  SGN B   2     -19.676  61.767   9.4270  0.00  0.00     0.000 S
ATOM     31   O  SGN B   2     -20.399  62.215  10.5700  0.00  0.00     0.000 OA
ATOM     32   O  SGN B   2     -18.289  61.791   9.6530  0.00  0.00     0.000 OA
ATOM     33   O  SGN B   2     -20.094  62.446   8.2600  0.00  0.00     0.000 OA
ENDBRANCH 21 30
BRANCH 24 34
ATOM     34   C  SGN B   2     -22.059  55.600   9.4610  0.00  0.00     0.000 C
ATOM     35   O  SGN B   2     -21.235  54.620   9.9830  0.00  0.00     0.000 O
ATOM     36  @S  SGN B   2     -21.484  53.127   9.8000  0.00  0.00     0.000 S
ATOM     37   O  SGN B   2     -20.748  52.787   8.6000  0.00  0.00     0.000 OA
ATOM     38   O  SGN B   2     -20.987  52.474  10.9890  0.00  0.00     0.000 OA
ATOM     39   O  SGN B   2     -22.928  52.996   9.6630  0.00  0.00     0.000 OA
ENDBRANCH 24 34
BRANCH 20 40
ATOM     40  O4  IDS B   3     -19.308  58.232  10.9810  0.00  0.00     0.000 O
BRANCH 40 44
ATOM     41  C1  IDS B   3     -16.783  57.906  13.3930  0.00  0.00     0.000 C
ATOM     42  C2  IDS B   3     -16.946  59.209  12.6120  0.00  0.00     0.000 C
ATOM     43  C3  IDS B   3     -17.117  59.055  11.0890  0.00  0.00     0.000 C
ATOM     44  C4  IDS B   3     -17.989  57.861  10.7580  0.00  0.00     0.000 C
ATOM     45  C5  IDS B   3     -17.635  56.633  11.6120  0.00  0.00     0.000 C
ATOM     46  O5  IDS B   3     -17.728  56.941  12.9550  0.00  0.00     0.000 O
ATOM     47   O  IDS B   3     -15.851  58.859  10.4930  0.00  0.00     0.000 O
ATOM     49  HD  IDS B   3     -16.682  59.103  10.5240  0.00  0.00     0.000 HD
BRANCH 42 49
ATOM     49   O  IDS B   3     -18.081  59.874  13.0890  0.00  0.00     0.000 O
ATOM     50   O  IDS B   3     -16.745  61.383  14.3080  0.00  0.00     0.000 OA
ATOM     51   O  IDS B   3     -18.688  62.184  13.2190  0.00  0.00     0.000 OA
ATOM     52   O  IDS B   3     -18.873  60.747  15.0820  0.00  0.00     0.000 OA
ATOM     53  @S  IDS B   3     -18.097  61.124  13.9730  0.00  0.00     0.000 S
ENDBRANCH 42 49
BRANCH 45 54
ATOM     54 @CA  IDS B   3     -18.447  55.374  11.3150  0.00  0.00     0.000 C
ATOM     55   O  IDS B   3     -18.197  54.670  10.3750  0.00  0.00     0.000 OA
ATOM     56   O  IDS B   3     -19.341  55.037  12.0190  0.00  0.00     0.000 OA
ENDBRANCH 45 54
BRANCH 41 57
ATOM     57  O4  SGN B   4     -15.479  57.444  13.2610  0.00  0.00     0.000 O
BRANCH 57 61
ATOM     58  C1  SGN B   4     -15.824  54.360  15.9750  0.00  0.00     0.000 C
ATOM     59  C2  SGN B   4     -15.604  55.739  16.5740  0.00  0.00     0.000 C
ATOM     60  C3  SGN B   4     -15.884  56.810  15.5230  0.00  0.00     0.000 C
ATOM     61  C4  SGN B   4     -15.036  56.585  14.2660  0.00  0.00     0.000 C
ATOM     62  C5  SGN B   4     -15.259  55.148  13.8020  0.00  0.00     0.000 C
ATOM     63  O5  SGN B   4     -14.987  54.224  14.8390  0.00  0.00     0.000 O
ATOM     64   O  SGN B   4     -15.559  58.074  16.0640  0.00  0.00     0.000 O
ATOM     66  HD  SGN B   4     -14.947  58.524  15.6480  0.00  0.00     0.000 HD
BRANCH 59 68
ATOM     66   N  SGN B   4     -15.115  55.571  17.9270  0.00  0.00     0.000 N
ATOM     68  HD  SGN B   4     -15.078  55.140  17.1770  0.00  0.00     0.000 HD
ATOM     68 @NS  SGN B   4     -16.145  55.125  19.1220  0.00  0.00     0.000 S
ATOM     69   O  SGN B   4     -17.402  55.777  18.9000  0.00  0.00     0.000 OA
ATOM     70   O  SGN B   4     -16.274  53.699  19.0260  0.00  0.00     0.000 OA
ATOM     71   O  SGN B   4     -15.502  55.558  20.3250  0.00  0.00     0.000 OA
ENDBRANCH 59 68
BRANCH 62 72
ATOM     72   C  SGN B   4     -14.371  54.761  12.6290  0.00  0.00     0.000 C
ATOM     73   O  SGN B   4     -14.227  53.374  12.7090  0.00  0.00     0.000 O
ATOM     74  @S  SGN B   4     -14.043  52.383  11.5470  0.00  0.00     0.000 S
ATOM     75   O  SGN B   4     -12.879  52.771  10.8410  0.00  0.00     0.000 OA
ATOM     76   O  SGN B   4     -13.890  51.113  12.1900  0.00  0.00     0.000 OA
ATOM     77   O  SGN B   4     -15.208  52.512  10.7380  0.00  0.00     0.000 OA
ENDBRANCH 62 72
BRANCH 58 78
ATOM     78  O4  IDS B   5     -17.189  54.177  15.6610  0.00  0.00     0.000 O
BRANCH 78 82
ATOM     79  C1  IDS B   5     -20.512  53.280  15.2740  0.00  0.00     0.000 C
ATOM     80  C2  IDS B   5     -20.042  53.794  16.6010  0.00  0.00     0.000 C
ATOM     81  C3  IDS B   5     -18.784  53.101  17.1190  0.00  0.00     0.000 C
ATOM     82  C4  IDS B   5     -17.727  52.930  16.0470  0.00  0.00     0.000 C
ATOM     83  C5  IDS B   5     -18.386  52.303  14.8600  0.00  0.00     0.000 C
ATOM     84  O5  IDS B   5     -19.416  53.152  14.3870  0.00  0.00     0.000 O
ATOM     85   O  IDS B   5     -19.152  51.818  17.5640  0.00  0.00     0.000 O
ATOM     87  HD  IDS B   5     -18.533  52.036  16.9980  0.00  0.00     0.000 HD
BRANCH 80 87
ATOM     87   O  IDS B   5     -19.738  55.125  16.4630  0.00  0.00     0.000 O
ATOM     88  @S  IDS B   5     -20.537  56.313  17.0050  0.00  0.00     0.000 S
ATOM     89   O  IDS B   5     -20.703  56.045  18.3880  0.00  0.00     0.000 OA
ATOM     90   O  IDS B   5     -19.747  57.460  16.7230  0.00  0.00     0.000 OA
ATOM     91   O  IDS B   5     -21.764  56.321  16.2870  0.00  0.00     0.000 OA
ENDBRANCH 80 87
BRANCH 83 92
ATOM     92 @CA  IDS B   5     -17.412  51.894  13.7620  0.00  0.00     0.000 C
ATOM     93   O  IDS B   5     -17.467  52.406  12.6410  0.00  0.00     0.000 OA
ATOM     94   O  IDS B   5     -16.549  51.034  13.9750  0.00  0.00     0.000 OA
ENDBRANCH 83 92
BRANCH 79 95
ATOM     95  O4  SGN B   6     -21.187  52.080  15.4540  0.00  0.00     0.000 O
BRANCH 95 99
ATOM     96  C1  SGN B   6     -23.342  49.473  13.0530  0.00  0.00     0.000 C
ATOM     97  C2  SGN B   6     -21.845  49.546  12.7800  0.00  0.00     0.000 C
ATOM     98  C3  SGN B   6     -21.194  50.081  14.0560  0.00  0.00     0.000 C
ATOM     99  C4  SGN B   6     -21.728  51.527  14.2680  0.00  0.00     0.000 C
ATOM    100  C5  SGN B   6     -23.271  51.412  14.4250  0.00  0.00     0.000 C
ATOM    101  O5  SGN B   6     -23.862  50.764  13.3020  0.00  0.00     0.000 O
BRANCH 97 104
ATOM    102   N  SGN B   6     -21.883  49.331  11.3300  0.00  0.00     0.000 N
ATOM    104  HD  SGN B   6     -22.371  48.638  11.1510  0.00  0.00     0.000 HD
ATOM    104 @NS  SGN B   6     -21.210  47.933  10.7430  0.00  0.00     0.000 S
ATOM    105   O  SGN B   6     -20.731  47.167  11.8730  0.00  0.00     0.000 OA
ATOM    106   O  SGN B   6     -22.251  47.242  10.0170  0.00  0.00     0.000 OA
ATOM    107   O  SGN B   6     -20.119  48.343   9.8870  0.00  0.00     0.000 OA
ENDBRANCH 97 104
BRANCH 100 108
ATOM    108   C  SGN B   6     -24.026  52.725  14.5970  0.00  0.00     0.000 C
ATOM    109   O  SGN B   6     -24.800  52.668  15.7700  0.00  0.00     0.000 O
ATOM    110  @S  SGN B   6     -25.733  53.811  16.3120  0.00  0.00     0.000 S
ATOM    111   O  SGN B   6     -26.389  54.370  15.1540  0.00  0.00     0.000 OA
ATOM    112   O  SGN B   6     -26.673  53.176  17.2210  0.00  0.00     0.000 OA
ATOM    113   O  SGN B   6     -24.856  54.755  16.9670  0.00  0.00     0.000 OA
ENDBRANCH 100 108
ENDBRANCH 95 99
ENDBRANCH 79 95
ENDBRANCH 78 82
ENDBRANCH 58 78
ENDBRANCH 57 61
ENDBRANCH 41 57
ENDBRANCH 40 44
ENDBRANCH 20 40
ENDBRANCH 19 23
ENDBRANCH 1 19
TORSDOF 22
ENDMDL
MODEL 19
REMARK VINA RESULT:       0.2      3.572      5.968
ROOT
ATOM      1  C1  IDS B   1     -24.604  61.240  10.1790  0.00  0.00     0.000 C
ATOM      2  C2  IDS B   1     -25.790  60.332   9.9830  0.00  0.00     0.000 C
ATOM      3  C3  IDS B   1     -26.604  59.993  11.2540  0.00  0.00     0.000 C
ATOM      4  C4  IDS B   1     -26.546  61.111  12.3600  0.00  0.00     0.000 C
ATOM      5  C5  IDS B   1     -25.235  61.933  12.3100  0.00  0.00     0.000 C
ATOM      6  O5  IDS B   1     -24.969  62.335  10.9930  0.00  0.00     0.000 O
ATOM      7   O  IDS B   1     -26.110  58.754  11.7540  0.00  0.00     0.000 O
ATOM      9  HD  IDS B   1     -26.480  59.199  12.3980  0.00  0.00     0.000 HD
ATOM      9   O  IDS B   1     -27.622  61.995  12.1340  0.00  0.00     0.000 O
ATOM     11  HD  IDS B   1     -27.991  62.440  12.7780  0.00  0.00     0.000 HD
ENDROOT
BRANCH 2 11
ATOM     11   O  IDS B   1     -26.678  60.912   9.0910  0.00  0.00     0.000 O
ATOM     12  @S  IDS B   1     -28.077  60.352   8.7660  0.00  0.00     0.000 S
ATOM     13   O  IDS B   1     -27.952  58.933   9.0280  0.00  0.00     0.000 OA
ATOM     14   O  IDS B   1     -29.007  61.006   9.6690  0.00  0.00     0.000 OA
ATOM     15   O  IDS B   1     -28.320  60.678   7.3750  0.00  0.00     0.000 OA
ENDBRANCH 2 11
BRANCH 5 16
ATOM     16 @CA  IDS B   1     -25.148  63.137  13.2430  0.00  0.00     0.000 C
ATOM     17   O  IDS B   1     -25.982  63.330  14.1250  0.00  0.00     0.000 OA
ATOM     18   O  IDS B   1     -24.225  63.940  13.1410  0.00  0.00     0.000 OA
ENDBRANCH 5 16
BRANCH 1 19
ATOM     19  O4  SGN B   2     -23.572  60.486  10.7810  0.00  0.00     0.000 O
BRANCH 19 23
ATOM     20  C1  SGN B   2     -19.551  60.187  10.0730  0.00  0.00     0.000 C
ATOM     21  C2  SGN B   2     -20.091  61.470  10.6660  0.00  0.00     0.000 C
ATOM     22  C3  SGN B   2     -21.372  61.190  11.3660  0.00  0.00     0.000 C
ATOM     23  C4  SGN B   2     -22.308  60.723  10.2750  0.00  0.00     0.000 C
ATOM     24  C5  SGN B   2     -21.749  59.423   9.8100  0.00  0.00     0.000 C
ATOM     25  O5  SGN B   2     -20.529  59.640   9.2000  0.00  0.00     0.000 O
ATOM     26   O  SGN B   2     -21.846  62.355  11.9440  0.00  0.00     0.000 O
ATOM     28  HD  SGN B   2     -22.268  63.081  12.1580  0.00  0.00     0.000 HD
BRANCH 21 30
ATOM     28   N  SGN B   2     -18.975  61.866  11.4740  0.00  0.00     0.000 N
ATOM     30  HD  SGN B   2     -19.355  62.506  11.9170  0.00  0.00     0.000 HD
ATOM     30 @NS  SGN B   2     -17.942  62.941  10.8280  0.00  0.00     0.000 S
ATOM     31   O  SGN B   2     -18.464  63.404   9.5860  0.00  0.00     0.000 OA
ATOM     32   O  SGN B   2     -17.895  63.970  11.7830  0.00  0.00     0.000 OA
ATOM     33   O  SGN B   2     -16.720  62.254  10.6440  0.00  0.00     0.000 OA
ENDBRANCH 21 30
BRANCH 24 34
ATOM     34   C  SGN B   2     -22.589  58.681   8.8370  0.00  0.00     0.000 C
ATOM     35   O  SGN B   2     -23.194  57.640   9.5180  0.00  0.00     0.000 O
ATOM     36  @S  SGN B   2     -24.299  56.775   8.9210  0.00  0.00     0.000 S
ATOM     37   O  SGN B   2     -23.593  55.665   8.3120  0.00  0.00     0.000 OA
ATOM     38   O  SGN B   2     -25.158  56.385  10.0150  0.00  0.00     0.000 OA
ATOM     39   O  SGN B   2     -24.982  57.636   7.9650  0.00  0.00     0.000 OA
ENDBRANCH 24 34
BRANCH 20 40
ATOM     40  O4  IDS B   3     -19.214  59.286  11.0830  0.00  0.00     0.000 O
BRANCH 40 44
ATOM     41  C1  IDS B   3     -17.431  57.077  13.1440  0.00  0.00     0.000 C
ATOM     42  C2  IDS B   3     -16.937  58.506  12.9290  0.00  0.00     0.000 C
ATOM     43  C3  IDS B   3     -16.921  58.993  11.4670  0.00  0.00     0.000 C
ATOM     44  C4  IDS B   3     -18.137  58.491  10.7140  0.00  0.00     0.000 C
ATOM     45  C5  IDS B   3     -18.440  57.017  11.0230  0.00  0.00     0.000 C
ATOM     46  O5  IDS B   3     -18.605  56.835  12.3820  0.00  0.00     0.000 O
ATOM     47   O  IDS B   3     -15.765  58.498  10.8230  0.00  0.00     0.000 O
ATOM     49  HD  IDS B   3     -16.422  59.046  10.9580  0.00  0.00     0.000 HD
BRANCH 42 49
ATOM     49   O  IDS B   3     -17.769  59.376  13.6440  0.00  0.00     0.000 O
ATOM     50   O  IDS B   3     -15.976  60.041  15.0180  0.00  0.00     0.000 OA
ATOM     51   O  IDS B   3     -17.552  61.662  14.3160  0.00  0.00     0.000 OA
ATOM     52   O  IDS B   3     -18.178  59.974  15.8430  0.00  0.00     0.000 OA
ATOM     53  @S  IDS B   3     -17.341  60.322  14.7690  0.00  0.00     0.000 S
ENDBRANCH 42 49
BRANCH 45 54
ATOM     54 @CA  IDS B   3     -19.632  56.424  10.2760  0.00  0.00     0.000 C
ATOM     55   O  IDS B   3     -20.635  56.095  10.8500  0.00  0.00     0.000 OA
ATOM     56   O  IDS B   3     -19.617  56.289   9.0980  0.00  0.00     0.000 OA
ENDBRANCH 45 54
BRANCH 41 57
ATOM     57  O4  SGN B   4     -16.418  56.181  12.8240  0.00  0.00     0.000 O
BRANCH 57 61
ATOM     58  C1  SGN B   4     -18.045  53.078  14.9960  0.00  0.00     0.000 C
ATOM     59  C2  SGN B   4     -17.136  54.016  15.7720  0.00  0.00     0.000 C
ATOM     60  C3  SGN B   4     -16.925  55.304  14.9820  0.00  0.00     0.000 C
ATOM     61  C4  SGN B   4     -16.386  55.008  13.5770  0.00  0.00     0.000 C
ATOM     62  C5  SGN B   4     -17.318  53.992  12.9230  0.00  0.00     0.000 C
ATOM     63  O5  SGN B   4     -17.463  52.836  13.7260  0.00  0.00     0.000 O
ATOM     64   O  SGN B   4     -15.985  56.108  15.6640  0.00  0.00     0.000 O
ATOM     66  HD  SGN B   4     -15.261  56.304  15.2310  0.00  0.00     0.000 HD
BRANCH 59 68
ATOM     66   N  SGN B   4     -16.719  53.285  16.9520  0.00  0.00     0.000 N
ATOM     68  HD  SGN B   4     -16.981  53.102  16.1470  0.00  0.00     0.000 HD
ATOM     68 @NS  SGN B   4     -17.732  53.152  18.2350  0.00  0.00     0.000 S
ATOM     69   O  SGN B   4     -18.436  54.391  18.3820  0.00  0.00     0.000 OA
ATOM     70   O  SGN B   4     -18.628  52.076  17.9250  0.00  0.00     0.000 OA
ATOM     71   O  SGN B   4     -16.868  52.872  19.3410  0.00  0.00     0.000 OA
ENDBRANCH 59 68
BRANCH 62 72
ATOM     72   C  SGN B   4     -16.818  53.520  11.5660  0.00  0.00     0.000 C
ATOM     73   O  SGN B   4     -16.377  52.209  11.7640  0.00  0.00     0.000 O
ATOM     74  @S  SGN B   4     -16.398  51.052  10.7510  0.00  0.00     0.000 S
ATOM     75   O  SGN B   4     -15.643  51.461   9.6250  0.00  0.00     0.000 OA
ATOM     76   O  SGN B   4     -15.784  49.963  11.4490  0.00  0.00     0.000 OA
ATOM     77   O  SGN B   4     -17.768  50.855  10.4140  0.00  0.00     0.000 OA
ENDBRANCH 62 72
BRANCH 58 78
ATOM     78  O4  IDS B   5     -19.342  53.629  14.8970  0.00  0.00     0.000 O
BRANCH 78 82
ATOM     79  C1  IDS B   5     -22.698  54.417  14.5610  0.00  0.00     0.000 C
ATOM     80  C2  IDS B   5     -22.093  54.360  15.9300  0.00  0.00     0.000 C
ATOM     81  C3  IDS B   5     -21.299  53.084  16.2000  0.00  0.00     0.000 C
ATOM     82  C4  IDS B   5     -20.396  52.702  15.0450  0.00  0.00     0.000 C
ATOM     83  C5  IDS B   5     -21.226  52.714  13.8010  0.00  0.00     0.000 C
ATOM     84  O5  IDS B   5     -21.747  54.013  13.5920  0.00  0.00     0.000 O
ATOM     85   O  IDS B   5     -22.220  52.037  16.3870  0.00  0.00     0.000 O
ATOM     87  HD  IDS B   5     -21.551  52.075  15.8380  0.00  0.00     0.000 HD
BRANCH 80 87
ATOM     87   O  IDS B   5     -21.218  55.410  16.0570  0.00  0.00     0.000 O
ATOM     88  @S  IDS B   5     -21.180  56.446  17.1840  0.00  0.00     0.000 S
ATOM     89   O  IDS B   5     -21.125  55.686  18.3800  0.00  0.00     0.000 OA
ATOM     90   O  IDS B   5     -20.021  57.230  16.9370  0.00  0.00     0.000 OA
ATOM     91   O  IDS B   5     -22.374  57.205  17.0600  0.00  0.00     0.000 OA
ENDBRANCH 80 87
BRANCH 83 92
ATOM     92 @CA  IDS B   5     -20.503  52.167  12.5760  0.00  0.00     0.000 C
ATOM     93   O  IDS B   5     -20.336  52.866  11.5740  0.00  0.00     0.000 OA
ATOM     94   O  IDS B   5     -20.075  51.007  12.5630  0.00  0.00     0.000 OA
ENDBRANCH 83 92
BRANCH 79 95
ATOM     95  O4  SGN B   6     -23.846  53.636  14.5280  0.00  0.00     0.000 O
BRANCH 95 99
ATOM     96  C1  SGN B   6     -27.305  53.492  12.2420  0.00  0.00     0.000 C
ATOM     97  C2  SGN B   6     -26.009  53.170  11.5090  0.00  0.00     0.000 C
ATOM     98  C3  SGN B   6     -25.001  52.739  12.5760  0.00  0.00     0.000 C
ATOM     99  C4  SGN B   6     -24.754  53.970  13.4940  0.00  0.00     0.000 C
ATOM    100  C5  SGN B   6     -26.127  54.333  14.1280  0.00  0.00     0.000 C
ATOM    101  O5  SGN B   6     -27.113  54.577  13.1290  0.00  0.00     0.000 O
BRANCH 97 104
ATOM    102   N  SGN B   6     -26.777  53.545  10.3190  0.00  0.00     0.000 N
ATOM    104  HD  SGN B   6     -27.301  52.893  10.0940  0.00  0.00     0.000 HD
ATOM    104 @NS  SGN B   6     -26.518  52.674   8.9310  0.00  0.00     0.000 S
ATOM    105   O  SGN B   6     -25.548  51.644   9.2340  0.00  0.00     0.000 OA
ATOM    106   O  SGN B   6     -27.795  52.123   8.5400  0.00  0.00     0.000 OA
ATOM    107   O  SGN B   6     -26.002  53.613   7.9600  0.00  0.00     0.000 OA
ENDBRANCH 97 104
BRANCH 100 108
ATOM    108   C  SGN B   6     -26.142  55.555  15.0390  0.00  0.00     0.000 C
ATOM    109   O  SGN B   6     -25.688  56.677  14.3230  0.00  0.00     0.000 O
ATOM    110  @S  SGN B   6     -25.543  58.134  14.8930  0.00  0.00     0.000 S
ATOM    111   O  SGN B   6     -25.017  57.987  16.2290  0.00  0.00     0.000 OA
ATOM    112   O  SGN B   6     -24.617  58.829  14.0130  0.00  0.00     0.000 OA
ATOM    113   O  SGN B   6     -26.875  58.696  14.8750  0.00  0.00     0.000 OA
ENDBRANCH 100 108
ENDBRANCH 95 99
ENDBRANCH 79 95
ENDBRANCH 78 82
ENDBRANCH 58 78
ENDBRANCH 57 61
ENDBRANCH 41 57
ENDBRANCH 40 44
ENDBRANCH 20 40
ENDBRANCH 19 23
ENDBRANCH 1 19
TORSDOF 22
ENDMDL
MODEL 20
REMARK VINA RESULT:       0.3      4.932     10.361
ROOT
ATOM      1  C1  IDS B   1     -17.118  51.731  13.1930  0.00  0.00     0.000 C
ATOM      2  C2  IDS B   1     -16.517  52.337  11.9520  0.00  0.00     0.000 C
ATOM      3  C3  IDS B   1     -16.595  53.878  11.8400  0.00  0.00     0.000 C
ATOM      4  C4  IDS B   1     -16.625  54.613  13.2330  0.00  0.00     0.000 C
ATOM      5  C5  IDS B   1     -17.253  53.747  14.3510  0.00  0.00     0.000 C
ATOM      6  O5  IDS B   1     -16.700  52.458  14.3310  0.00  0.00     0.000 O
ATOM      7   O  IDS B   1     -17.755  54.187  11.0740  0.00  0.00     0.000 O
ATOM      9  HD  IDS B   1     -17.551  54.863  11.5770  0.00  0.00     0.000 HD
ATOM      9   O  IDS B   1     -15.292  54.894  13.5980  0.00  0.00     0.000 O
ATOM     11  HD  IDS B   1     -15.089  55.569  14.1000  0.00  0.00     0.000 HD
ENDROOT
BRANCH 2 11
ATOM     11   O  IDS B   1     -15.173  52.006  11.8760  0.00  0.00     0.000 O
ATOM     12  @S  IDS B   1     -14.423  51.701  10.5650  0.00  0.00     0.000 S
ATOM     13   O  IDS B   1     -15.462  51.219   9.6760  0.00  0.00     0.000 OA
ATOM     14   O  IDS B   1     -13.843  52.953  10.1160  0.00  0.00     0.000 OA
ATOM     15   O  IDS B   1     -13.425  50.706  10.9020  0.00  0.00     0.000 OA
ENDBRANCH 2 11
BRANCH 5 16
ATOM     16 @CA  IDS B   1     -17.191  54.311  15.7670  0.00  0.00     0.000 C
ATOM     17   O  IDS B   1     -16.131  54.677  16.2690  0.00  0.00     0.000 OA
ATOM     18   O  IDS B   1     -18.214  54.426  16.4380  0.00  0.00     0.000 OA
ENDBRANCH 5 16
BRANCH 1 19
ATOM     19  O4  SGN B   2     -18.523  51.767  13.0600  0.00  0.00     0.000 O
BRANCH 19 23
ATOM     20  C1  SGN B   2     -21.500  49.126  14.0220  0.00  0.00     0.000 C
ATOM     21  C2  SGN B   2     -20.646  49.695  15.1340  0.00  0.00     0.000 C
ATOM     22  C3  SGN B   2     -20.071  50.995  14.6990  0.00  0.00     0.000 C
ATOM     23  C4  SGN B   2     -19.181  50.645  13.5290  0.00  0.00     0.000 C
ATOM     24  C5  SGN B   2     -20.107  50.176  12.4600  0.00  0.00     0.000 C
ATOM     25  O5  SGN B   2     -20.701  48.993  12.8550  0.00  0.00     0.000 O
ATOM     26   O  SGN B   2     -19.323  51.536  15.7310  0.00  0.00     0.000 O
ATOM     28  HD  SGN B   2     -18.706  51.818  16.2690  0.00  0.00     0.000 HD
BRANCH 21 30
ATOM     28   N  SGN B   2     -21.163  49.835  16.4640  0.00  0.00     0.000 N
ATOM     30  HD  SGN B   2     -20.413  49.833  16.8960  0.00  0.00     0.000 HD
ATOM     30 @NS  SGN B   2     -21.598  48.470  17.2320  0.00  0.00     0.000 S
ATOM     31   O  SGN B   2     -21.218  47.347  16.4430  0.00  0.00     0.000 OA
ATOM     32   O  SGN B   2     -20.874  48.524  18.4350  0.00  0.00     0.000 OA
ATOM     33   O  SGN B   2     -23.002  48.533  17.3870  0.00  0.00     0.000 OA
ENDBRANCH 21 30
BRANCH 24 34
ATOM     34   C  SGN B   2     -19.477  49.921  11.1410  0.00  0.00     0.000 C
ATOM     35   O  SGN B   2     -19.033  48.611  11.1370  0.00  0.00     0.000 O
ATOM     36  @S  SGN B   2     -18.521  47.900   9.8900  0.00  0.00     0.000 S
ATOM     37   O  SGN B   2     -17.093  48.144   9.9000  0.00  0.00     0.000 OA
ATOM     38   O  SGN B   2     -18.871  46.505  10.0340  0.00  0.00     0.000 OA
ATOM     39   O  SGN B   2     -19.220  48.530   8.7780  0.00  0.00     0.000 OA
ENDBRANCH 24 34
BRANCH 20 40
ATOM     40  O4  IDS B   3     -22.606  49.943  13.7880  0.00  0.00     0.000 O
BRANCH 40 44
ATOM     41  C1  IDS B   3     -25.858  51.014  13.0280  0.00  0.00     0.000 C
ATOM     42  C2  IDS B   3     -25.230  51.343  14.3810  0.00  0.00     0.000 C
ATOM     43  C3  IDS B   3     -24.536  50.168  15.0970  0.00  0.00     0.000 C
ATOM     44  C4  IDS B   3     -23.791  49.294  14.1090  0.00  0.00     0.000 C
ATOM     45  C5  IDS B   3     -24.610  49.033  12.8350  0.00  0.00     0.000 C
ATOM     46  O5  IDS B   3     -24.972  50.228  12.2450  0.00  0.00     0.000 O
ATOM     47   O  IDS B   3     -25.510  49.375  15.7440  0.00  0.00     0.000 O
ATOM     49  HD  IDS B   3     -24.722  49.711  15.6140  0.00  0.00     0.000 HD
BRANCH 42 49
ATOM     49   O  IDS B   3     -24.264  52.338  14.1920  0.00  0.00     0.000 O
ATOM     50   O  IDS B   3     -25.101  53.567  16.0180  0.00  0.00     0.000 OA
ATOM     51   O  IDS B   3     -22.761  53.461  15.6770  0.00  0.00     0.000 OA
ATOM     52   O  IDS B   3     -24.133  54.649  14.1680  0.00  0.00     0.000 OA
ATOM     53  @S  IDS B   3     -24.050  53.575  15.0690  0.00  0.00     0.000 S
ENDBRANCH 42 49
BRANCH 45 54
ATOM     54 @CA  IDS B   3     -23.942  48.130  11.8010  0.00  0.00     0.000 C
ATOM     55   O  IDS B   3     -23.374  48.581  10.8430  0.00  0.00     0.000 OA
ATOM     56   O  IDS B   3     -23.940  46.950  11.9220  0.00  0.00     0.000 OA
ENDBRANCH 45 54
BRANCH 41 57
ATOM     57  O4  SGN B   4     -27.076  50.374  13.2240  0.00  0.00     0.000 O
BRANCH 57 61
ATOM     58  C1  SGN B   4     -30.372  49.950  10.7840  0.00  0.00     0.000 C
ATOM     59  C2  SGN B   4     -29.729  48.654  11.2490  0.00  0.00     0.000 C
ATOM     60  C3  SGN B   4     -28.798  48.932  12.4260  0.00  0.00     0.000 C
ATOM     61  C4  SGN B   4     -27.755  49.997  12.0670  0.00  0.00     0.000 C
ATOM     62  C5  SGN B   4     -28.499  51.216  11.5270  0.00  0.00     0.000 C
ATOM     63  O5  SGN B   4     -29.344  50.867  10.4470  0.00  0.00     0.000 O
ATOM     64   O  SGN B   4     -28.123  47.738  12.7630  0.00  0.00     0.000 O
ATOM     66  HD  SGN B   4     -27.258  47.757  12.7100  0.00  0.00     0.000 HD
BRANCH 59 68
ATOM     66   N  SGN B   4     -30.142  47.575  10.3760  0.00  0.00     0.000 N
ATOM     68  HD  SGN B   4     -29.990  48.425  10.3110  0.00  0.00     0.000 HD
ATOM     68 @NS  SGN B   4     -31.668  46.982  10.4710  0.00  0.00     0.000 S
ATOM     69   O  SGN B   4     -32.060  46.967  11.8490  0.00  0.00     0.000 OA
ATOM     70   O  SGN B   4     -32.491  47.873   9.7050  0.00  0.00     0.000 OA
ATOM     71   O  SGN B   4     -31.574  45.669   9.9080  0.00  0.00     0.000 OA
ENDBRANCH 59 68
BRANCH 62 72
ATOM     72   C  SGN B   4     -27.562  52.300  11.0160  0.00  0.00     0.000 C
ATOM     73   O  SGN B   4     -27.087  51.836   9.7880  0.00  0.00     0.000 O
ATOM     74  @S  SGN B   4     -26.687  52.674   8.5610  0.00  0.00     0.000 S
ATOM     75   O  SGN B   4     -25.662  53.561   8.9710  0.00  0.00     0.000 OA
ATOM     76   O  SGN B   4     -26.222  51.707   7.6120  0.00  0.00     0.000 OA
ATOM     77   O  SGN B   4     -27.861  53.380   8.1740  0.00  0.00     0.000 OA
ENDBRANCH 62 72
BRANCH 58 78
ATOM     78  O4  IDS B   5     -31.233  50.453  11.7850  0.00  0.00     0.000 O
BRANCH 78 82
ATOM     79  C1  IDS B   5     -33.620  52.026  13.7400  0.00  0.00     0.000 C
ATOM     80  C2  IDS B   5     -33.661  50.535  13.5920  0.00  0.00     0.000 C
ATOM     81  C3  IDS B   5     -33.587  50.057  12.1450  0.00  0.00     0.000 C
ATOM     82  C4  IDS B   5     -32.530  50.788  11.3410  0.00  0.00     0.000 C
ATOM     83  C5  IDS B   5     -32.744  52.254  11.5430  0.00  0.00     0.000 C
ATOM     84  O5  IDS B   5     -32.604  52.568  12.9160  0.00  0.00     0.000 O
ATOM     85   O  IDS B   5     -34.833  50.313  11.5430  0.00  0.00     0.000 O
ATOM     87  HD  IDS B   5     -34.045  50.552  11.2740  0.00  0.00     0.000 HD
BRANCH 80 87
ATOM     87   O  IDS B   5     -32.573  50.009  14.2440  0.00  0.00     0.000 O
ATOM     88  @S  IDS B   5     -32.580  48.909  15.3080  0.00  0.00     0.000 S
ATOM     89   O  IDS B   5     -33.297  47.835  14.7220  0.00  0.00     0.000 OA
ATOM     90   O  IDS B   5     -31.212  48.625  15.5660  0.00  0.00     0.000 OA
ATOM     91   O  IDS B   5     -33.233  49.463  16.4420  0.00  0.00     0.000 OA
ENDBRANCH 80 87
BRANCH 83 92
ATOM     92 @CA  IDS B   5     -31.875  53.130  10.6490  0.00  0.00     0.000 C
ATOM     93   O  IDS B   5     -32.052  53.165   9.4290  0.00  0.00     0.000 OA
ATOM     94   O  IDS B   5     -30.970  53.821  11.1330  0.00  0.00     0.000 OA
ENDBRANCH 83 92
BRANCH 79 95
ATOM     95  O4  SGN B   6     -34.871  52.555  13.4490  0.00  0.00     0.000 O
BRANCH 95 99
ATOM     96  C1  SGN B   6     -36.931  55.995  14.5130  0.00  0.00     0.000 C
ATOM     97  C2  SGN B   6     -35.928  56.144  13.3750  0.00  0.00     0.000 C
ATOM     98  C3  SGN B   6     -35.718  54.746  12.7920  0.00  0.00     0.000 C
ATOM     99  C4  SGN B   6     -35.071  53.879  13.9100  0.00  0.00     0.000 C
ATOM    100  C5  SGN B   6     -36.080  53.853  15.0930  0.00  0.00     0.000 C
ATOM    101  O5  SGN B   6     -36.401  55.169  15.5320  0.00  0.00     0.000 O
BRANCH 97 104
ATOM    102   N  SGN B   6     -35.861  57.558  13.7560  0.00  0.00     0.000 N
ATOM    104  HD  SGN B   6     -36.593  57.958  13.5200  0.00  0.00     0.000 HD
ATOM    104 @NS  SGN B   6     -35.872  58.683  12.5360  0.00  0.00     0.000 S
ATOM    105   O  SGN B   6     -35.988  57.971  11.2820  0.00  0.00     0.000 OA
ATOM    106   O  SGN B   6     -37.004  59.548  12.7780  0.00  0.00     0.000 OA
ATOM    107   O  SGN B   6     -34.611  59.385  12.6280  0.00  0.00     0.000 OA
ENDBRANCH 97 104
BRANCH 100 108
ATOM    108   C  SGN B   6     -35.634  53.093  16.3370  0.00  0.00     0.000 C
ATOM    109   O  SGN B   6     -34.767  53.903  17.0930  0.00  0.00     0.000 O
ATOM    110  @S  SGN B   6     -34.077  53.499  18.4460  0.00  0.00     0.000 S
ATOM    111   O  SGN B   6     -33.671  52.122  18.2880  0.00  0.00     0.000 OA
ATOM    112   O  SGN B   6     -32.939  54.390  18.6090  0.00  0.00     0.000 OA
ATOM    113   O  SGN B   6     -35.086  53.671  19.4670  0.00  0.00     0.000 OA
ENDBRANCH 100 108
ENDBRANCH 95 99
ENDBRANCH 79 95
ENDBRANCH 78 82
ENDBRANCH 58 78
ENDBRANCH 57 61
ENDBRANCH 41 57
ENDBRANCH 40 44
ENDBRANCH 20 40
ENDBRANCH 19 23
ENDBRANCH 1 19
TORSDOF 22
ENDMDL
MODEL 21
REMARK VINA RESULT:       0.7      1.902      2.470
ROOT
ATOM      1  C1  IDS B   1     -24.665  56.806  13.0320  0.00  0.00     0.000 C
ATOM      2  C2  IDS B   1     -24.949  57.231  11.6160  0.00  0.00     0.000 C
ATOM      3  C3  IDS B   1     -25.783  56.244  10.7640  0.00  0.00     0.000 C
ATOM      4  C4  IDS B   1     -26.763  55.349  11.6100  0.00  0.00     0.000 C
ATOM      5  C5  IDS B   1     -26.253  55.103  13.0510  0.00  0.00     0.000 C
ATOM      6  O5  IDS B   1     -25.846  56.313  13.6310  0.00  0.00     0.000 O
ATOM      7   O  IDS B   1     -24.865  55.442  10.0270  0.00  0.00     0.000 O
ATOM      9  HD  IDS B   1     -25.615  55.017  10.1150  0.00  0.00     0.000 HD
ATOM      9   O  IDS B   1     -27.997  56.026  11.6950  0.00  0.00     0.000 O
ATOM     11  HD  IDS B   1     -28.746  55.601  11.7830  0.00  0.00     0.000 HD
ENDROOT
BRANCH 2 11
ATOM     11   O  IDS B   1     -25.645  58.430  11.6200  0.00  0.00     0.000 O
ATOM     12  @S  IDS B   1     -25.290  59.646  10.7430  0.00  0.00     0.000 S
ATOM     13   O  IDS B   1     -23.869  59.496  10.5010  0.00  0.00     0.000 OA
ATOM     14   O  IDS B   1     -26.077  59.528   9.5290  0.00  0.00     0.000 OA
ATOM     15   O  IDS B   1     -25.637  60.814  11.5280  0.00  0.00     0.000 OA
ENDBRANCH 2 11
BRANCH 5 16
ATOM     16 @CA  IDS B   1     -27.203  54.373  13.9950  0.00  0.00     0.000 C
ATOM     17   O  IDS B   1     -26.826  53.942  15.0830  0.00  0.00     0.000 OA
ATOM     18   O  IDS B   1     -28.382  54.210  13.6900  0.00  0.00     0.000 OA
ENDBRANCH 5 16
BRANCH 1 19
ATOM     19  O4  SGN B   2     -23.665  55.808  12.9970  0.00  0.00     0.000 O
BRANCH 19 23
ATOM     20  C1  SGN B   2     -19.968  55.484  14.7240  0.00  0.00     0.000 C
ATOM     21  C2  SGN B   2     -21.171  55.698  15.6160  0.00  0.00     0.000 C
ATOM     22  C3  SGN B   2     -22.393  55.215  14.9220  0.00  0.00     0.000 C
ATOM     23  C4  SGN B   2     -22.519  56.107  13.7090  0.00  0.00     0.000 C
ATOM     24  C5  SGN B   2     -21.347  55.772  12.8540  0.00  0.00     0.000 C
ATOM     25  O5  SGN B   2     -20.186  56.160  13.4940  0.00  0.00     0.000 O
ATOM     26   O  SGN B   2     -23.488  55.372  15.7540  0.00  0.00     0.000 O
ATOM     28  HD  SGN B   2     -24.214  55.619  16.1580  0.00  0.00     0.000 HD
BRANCH 21 30
ATOM     28   N  SGN B   2     -20.285  55.082  16.5610  0.00  0.00     0.000 N
ATOM     30  HD  SGN B   2     -20.850  54.545  16.9390  0.00  0.00     0.000 HD
ATOM     30 @NS  SGN B   2     -20.075  55.845  17.9800  0.00  0.00     0.000 S
ATOM     31   O  SGN B   2     -20.974  56.947  18.0570  0.00  0.00     0.000 OA
ATOM     32   O  SGN B   2     -20.385  54.860  18.9330  0.00  0.00     0.000 OA
ATOM     33   O  SGN B   2     -18.730  56.280  18.0000  0.00  0.00     0.000 OA
ENDBRANCH 21 30
BRANCH 24 34
ATOM     34   C  SGN B   2     -21.332  56.413  11.5150  0.00  0.00     0.000 C
ATOM     35   O  SGN B   2     -21.373  55.404  10.5690  0.00  0.00     0.000 O
ATOM     36  @S  SGN B   2     -21.587  55.655   9.0810  0.00  0.00     0.000 S
ATOM     37   O  SGN B   2     -20.247  55.792   8.5460  0.00  0.00     0.000 OA
ATOM     38   O  SGN B   2     -22.302  54.511   8.5650  0.00  0.00     0.000 OA
ATOM     39   O  SGN B   2     -22.378  56.876   9.0100  0.00  0.00     0.000 OA
ENDBRANCH 24 34
BRANCH 20 40
ATOM     40  O4  IDS B   3     -19.746  54.122  14.5210  0.00  0.00     0.000 O
BRANCH 40 44
ATOM     41  C1  IDS B   3     -17.576  51.367  14.5730  0.00  0.00     0.000 C
ATOM     42  C2  IDS B   3     -17.223  52.646  15.3290  0.00  0.00     0.000 C
ATOM     43  C3  IDS B   3     -17.409  53.958  14.5420  0.00  0.00     0.000 C
ATOM     44  C4  IDS B   3     -18.658  53.905  13.6860  0.00  0.00     0.000 C
ATOM     45  C5  IDS B   3     -18.808  52.556  12.9650  0.00  0.00     0.000 C
ATOM     46  O5  IDS B   3     -18.805  51.521  13.8790  0.00  0.00     0.000 O
ATOM     47   O  IDS B   3     -16.298  54.155  13.6920  0.00  0.00     0.000 O
ATOM     49  HD  IDS B   3     -16.976  54.393  14.1750  0.00  0.00     0.000 HD
BRANCH 42 49
ATOM     49   O  IDS B   3     -18.035  52.729  16.4650  0.00  0.00     0.000 O
ATOM     50   O  IDS B   3     -16.569  51.338  17.6750  0.00  0.00     0.000 OA
ATOM     51   O  IDS B   3     -17.578  53.177  18.7710  0.00  0.00     0.000 OA
ATOM     52   O  IDS B   3     -18.882  51.327  18.1010  0.00  0.00     0.000 OA
ATOM     53  @S  IDS B   3     -17.746  52.110  17.8350  0.00  0.00     0.000 S
ENDBRANCH 42 49
BRANCH 45 54
ATOM     54 @CA  IDS B   3     -20.027  52.434  12.0530  0.00  0.00     0.000 C
ATOM     55   O  IDS B   3     -19.923  52.449  10.8560  0.00  0.00     0.000 OA
ATOM     56   O  IDS B   3     -21.118  52.297  12.4970  0.00  0.00     0.000 OA
ENDBRANCH 45 54
BRANCH 41 57
ATOM     57  O4  SGN B   4     -16.538  51.033  13.7110  0.00  0.00     0.000 O
BRANCH 57 61
ATOM     58  C1  SGN B   4     -17.489  47.025  13.8600  0.00  0.00     0.000 C
ATOM     59  C2  SGN B   4     -16.345  47.461  14.7590  0.00  0.00     0.000 C
ATOM     60  C3  SGN B   4     -16.354  48.980  14.9070  0.00  0.00     0.000 C
ATOM     61  C4  SGN B   4     -16.308  49.669  13.5390  0.00  0.00     0.000 C
ATOM     62  C5  SGN B   4     -17.438  49.095  12.6880  0.00  0.00     0.000 C
ATOM     63  O5  SGN B   4     -17.358  47.684  12.6120  0.00  0.00     0.000 O
ATOM     64   O  SGN B   4     -15.215  49.372  15.6460  0.00  0.00     0.000 O
ATOM     66  HD  SGN B   4     -14.663  49.906  15.2470  0.00  0.00     0.000 HD
BRANCH 59 68
ATOM     66   N  SGN B   4     -15.549  46.313  15.1430  0.00  0.00     0.000 N
ATOM     68  HD  SGN B   4     -16.009  46.570  14.4560  0.00  0.00     0.000 HD
ATOM     68 @NS  SGN B   4     -16.145  45.223  16.2140  0.00  0.00     0.000 S
ATOM     69   O  SGN B   4     -16.890  45.934  17.2110  0.00  0.00     0.000 OA
ATOM     70   O  SGN B   4     -16.991  44.344  15.4600  0.00  0.00     0.000 OA
ATOM     71   O  SGN B   4     -14.984  44.577  16.7460  0.00  0.00     0.000 OA
ENDBRANCH 59 68
BRANCH 62 72
ATOM     72   C  SGN B   4     -17.420  49.610  11.2570  0.00  0.00     0.000 C
ATOM     73   O  SGN B   4     -17.378  48.472  10.4490  0.00  0.00     0.000 O
ATOM     74  @S  SGN B   4     -17.980  48.298   9.0440  0.00  0.00     0.000 S
ATOM     75   O  SGN B   4     -17.401  49.286   8.2110  0.00  0.00     0.000 OA
ATOM     76   O  SGN B   4     -17.598  46.972   8.6600  0.00  0.00     0.000 OA
ATOM     77   O  SGN B   4     -19.382  48.501   9.1940  0.00  0.00     0.000 OA
ENDBRANCH 62 72
BRANCH 58 78
ATOM     78  O4  IDS B   5     -18.728  47.296  14.4830  0.00  0.00     0.000 O
BRANCH 78 82
ATOM     79  C1  IDS B   5     -21.914  47.435  15.8350  0.00  0.00     0.000 C
ATOM     80  C2  IDS B   5     -20.887  46.550  16.4720  0.00  0.00     0.000 C
ATOM     81  C3  IDS B   5     -20.165  45.636  15.4850  0.00  0.00     0.000 C
ATOM     82  C4  IDS B   5     -19.747  46.355  14.2190  0.00  0.00     0.000 C
ATOM     83  C5  IDS B   5     -20.946  47.078  13.6950  0.00  0.00     0.000 C
ATOM     84  O5  IDS B   5     -21.390  48.018  14.6560  0.00  0.00     0.000 O
ATOM     85   O  IDS B   5     -21.056  44.610  15.1190  0.00  0.00     0.000 O
ATOM     87  HD  IDS B   5     -20.613  45.149  14.6050  0.00  0.00     0.000 HD
BRANCH 80 87
ATOM     87   O  IDS B   5     -19.931  47.348  17.0500  0.00  0.00     0.000 O
ATOM     88  @S  IDS B   5     -19.738  47.618  18.5450  0.00  0.00     0.000 S
ATOM     89   O  IDS B   5     -19.652  46.334  19.1420  0.00  0.00     0.000 OA
ATOM     90   O  IDS B   5     -18.546  48.386  18.6380  0.00  0.00     0.000 OA
ATOM     91   O  IDS B   5     -20.880  48.352  18.9620  0.00  0.00     0.000 OA
ENDBRANCH 80 87
BRANCH 83 92
ATOM     92 @CA  IDS B   5     -20.735  47.700  12.3200  0.00  0.00     0.000 C
ATOM     93   O  IDS B   5     -20.833  48.918  12.1520  0.00  0.00     0.000 OA
ATOM     94   O  IDS B   5     -20.465  46.991  11.3430  0.00  0.00     0.000 OA
ENDBRANCH 83 92
BRANCH 79 95
ATOM     95  O4  SGN B   6     -23.069  46.704  15.5910  0.00  0.00     0.000 O
BRANCH 95 99
ATOM     96  C1  SGN B   6     -26.818  47.800  14.1920  0.00  0.00     0.000 C
ATOM     97  C2  SGN B   6     -25.892  47.146  13.1740  0.00  0.00     0.000 C
ATOM     98  C3  SGN B   6     -24.859  46.349  13.9720  0.00  0.00     0.000 C
ATOM     99  C4  SGN B   6     -24.034  47.375  14.8010  0.00  0.00     0.000 C
ATOM    100  C5  SGN B   6     -25.040  48.098  15.7410  0.00  0.00     0.000 C
ATOM    101  O5  SGN B   6     -26.096  48.706  15.0040  0.00  0.00     0.000 O
BRANCH 97 104
ATOM    102   N  SGN B   6     -27.117  47.394  12.4080  0.00  0.00     0.000 N
ATOM    104  HD  SGN B   6     -27.436  46.643  12.1190  0.00  0.00     0.000 HD
ATOM    104 @NS  SGN B   6     -27.102  47.018  10.7920  0.00  0.00     0.000 S
ATOM    105   O  SGN B   6     -25.804  46.458  10.4830  0.00  0.00     0.000 OA
ATOM    106   O  SGN B   6     -28.171  46.071  10.5750  0.00  0.00     0.000 OA
ATOM    107   O  SGN B   6     -27.317  48.264  10.0900  0.00  0.00     0.000 OA
ENDBRANCH 97 104
BRANCH 100 108
ATOM    108   C  SGN B   6     -24.460  49.196  16.6250  0.00  0.00     0.000 C
ATOM    109   O  SGN B   6     -23.857  50.176  15.8180  0.00  0.00     0.000 O
ATOM    110  @S  SGN B   6     -23.136  51.475  16.3310  0.00  0.00     0.000 S
ATOM    111   O  SGN B   6     -22.387  51.077  17.4990  0.00  0.00     0.000 OA
ATOM    112   O  SGN B   6     -22.270  51.919  15.2500  0.00  0.00     0.000 OA
ATOM    113   O  SGN B   6     -24.191  52.414  16.6370  0.00  0.00     0.000 OA
ENDBRANCH 100 108
ENDBRANCH 95 99
ENDBRANCH 79 95
ENDBRANCH 78 82
ENDBRANCH 58 78
ENDBRANCH 57 61
ENDBRANCH 41 57
ENDBRANCH 40 44
ENDBRANCH 20 40
ENDBRANCH 19 23
ENDBRANCH 1 19
TORSDOF 22
ENDMDL
MODEL 22
REMARK VINA RESULT:       0.7      2.482      8.406
ROOT
ATOM      1  C1  IDS B   1     -27.673  52.127  11.6420  0.00  0.00     0.000 C
ATOM      2  C2  IDS B   1     -27.333  53.593  11.7050  0.00  0.00     0.000 C
ATOM      3  C3  IDS B   1     -26.597  54.175  10.4750  0.00  0.00     0.000 C
ATOM      4  C4  IDS B   1     -26.916  53.420   9.1310  0.00  0.00     0.000 C
ATOM      5  C5  IDS B   1     -27.283  51.932   9.3540  0.00  0.00     0.000 C
ATOM      6  O5  IDS B   1     -28.231  51.819  10.3810  0.00  0.00     0.000 O
ATOM      7   O  IDS B   1     -25.203  54.141  10.7620  0.00  0.00     0.000 O
ATOM      9  HD  IDS B   1     -25.322  54.143   9.9040  0.00  0.00     0.000 HD
ATOM      9   O  IDS B   1     -28.025  54.056   8.5350  0.00  0.00     0.000 O
ATOM     11  HD  IDS B   1     -28.143  54.058   7.6770  0.00  0.00     0.000 HD
ENDROOT
BRANCH 2 11
ATOM     11   O  IDS B   1     -28.495  54.334  11.8540  0.00  0.00     0.000 O
ATOM     12  @S  IDS B   1     -28.539  55.799  12.3300  0.00  0.00     0.000 S
ATOM     13   O  IDS B   1     -27.341  55.939  13.1330  0.00  0.00     0.000 OA
ATOM     14   O  IDS B   1     -28.509  56.626  11.1370  0.00  0.00     0.000 OA
ATOM     15   O  IDS B   1     -29.773  55.935  13.0780  0.00  0.00     0.000 OA
ENDBRANCH 2 11
BRANCH 5 16
ATOM     16 @CA  IDS B   1     -27.754  51.155   8.1290  0.00  0.00     0.000 C
ATOM     17   O  IDS B   1     -28.708  51.533   7.4530  0.00  0.00     0.000 OA
ATOM     18   O  IDS B   1     -27.175  50.129   7.7810  0.00  0.00     0.000 OA
ENDBRANCH 5 16
BRANCH 1 19
ATOM     19  O4  SGN B   2     -26.485  51.394  11.8590  0.00  0.00     0.000 O
BRANCH 19 23
ATOM     20  C1  SGN B   2     -25.593  48.142  14.1790  0.00  0.00     0.000 C
ATOM     21  C2  SGN B   2     -26.769  48.057  13.2310  0.00  0.00     0.000 C
ATOM     22  C3  SGN B   2     -26.579  49.027  12.1210  0.00  0.00     0.000 C
ATOM     23  C4  SGN B   2     -26.589  50.381  12.7930  0.00  0.00     0.000 C
ATOM     24  C5  SGN B   2     -25.361  50.407  13.6370  0.00  0.00     0.000 C
ATOM     25  O5  SGN B   2     -25.481  49.477  14.6510  0.00  0.00     0.000 O
ATOM     26   O  SGN B   2     -27.634  48.922  11.2310  0.00  0.00     0.000 O
ATOM     28  HD  SGN B   2     -28.351  49.021  10.7560  0.00  0.00     0.000 HD
BRANCH 21 30
ATOM     28   N  SGN B   2     -26.731  46.664  12.8950  0.00  0.00     0.000 N
ATOM     30  HD  SGN B   2     -27.306  46.670  12.2470  0.00  0.00     0.000 HD
ATOM     30 @NS  SGN B   2     -27.707  45.675  13.7380  0.00  0.00     0.000 S
ATOM     31   O  SGN B   2     -28.551  46.456  14.5790  0.00  0.00     0.000 OA
ATOM     32   O  SGN B   2     -28.443  45.011  12.7430  0.00  0.00     0.000 OA
ATOM     33   O  SGN B   2     -26.859  44.838  14.5000  0.00  0.00     0.000 OA
ENDBRANCH 21 30
BRANCH 24 34
ATOM     34   C  SGN B   2     -25.062  51.709  14.2830  0.00  0.00     0.000 C
ATOM     35   O  SGN B   2     -26.018  51.920  15.2610  0.00  0.00     0.000 O
ATOM     36  @S  SGN B   2     -25.934  53.041  16.2900  0.00  0.00     0.000 S
ATOM     37   O  SGN B   2     -26.649  54.142  15.6760  0.00  0.00     0.000 OA
ATOM     38   O  SGN B   2     -26.559  52.545  17.4950  0.00  0.00     0.000 OA
ATOM     39   O  SGN B   2     -24.511  53.288  16.4700  0.00  0.00     0.000 OA
ENDBRANCH 24 34
BRANCH 20 40
ATOM     40  O4  IDS B   3     -24.422  47.729  13.5440  0.00  0.00     0.000 O
BRANCH 40 44
ATOM     41  C1  IDS B   3     -21.300  46.319  12.7910  0.00  0.00     0.000 C
ATOM     42  C2  IDS B   3     -22.562  45.458  12.7840  0.00  0.00     0.000 C
ATOM     43  C3  IDS B   3     -23.491  45.628  14.0010  0.00  0.00     0.000 C
ATOM     44  C4  IDS B   3     -23.569  47.080  14.4260  0.00  0.00     0.000 C
ATOM     45  C5  IDS B   3     -22.190  47.758  14.4200  0.00  0.00     0.000 C
ATOM     46  O5  IDS B   3     -21.608  47.651  13.1720  0.00  0.00     0.000 O
ATOM     47   O  IDS B   3     -22.986  44.875  15.0840  0.00  0.00     0.000 O
ATOM     49  HD  IDS B   3     -23.594  45.272  14.6120  0.00  0.00     0.000 HD
BRANCH 42 49
ATOM     49   O  IDS B   3     -23.311  45.776  11.6460  0.00  0.00     0.000 O
ATOM     50   O  IDS B   3     -22.142  44.180  10.3680  0.00  0.00     0.000 OA
ATOM     51   O  IDS B   3     -24.469  44.449  10.0260  0.00  0.00     0.000 OA
ATOM     52   O  IDS B   3     -22.966  46.153   9.3880  0.00  0.00     0.000 OA
ATOM     53  @S  IDS B   3     -23.219  45.096  10.2770  0.00  0.00     0.000 S
ENDBRANCH 42 49
BRANCH 45 54
ATOM     54 @CA  IDS B   3     -22.176  49.217  14.8700  0.00  0.00     0.000 C
ATOM     55   O  IDS B   3     -21.878  50.106  14.1190  0.00  0.00     0.000 OA
ATOM     56   O  IDS B   3     -22.484  49.525  15.9740  0.00  0.00     0.000 OA
ENDBRANCH 45 54
BRANCH 41 57
ATOM     57  O4  SGN B   4     -20.353  45.749  13.6330  0.00  0.00     0.000 O
BRANCH 57 61
ATOM     58  C1  SGN B   4     -17.169  48.064  12.4060  0.00  0.00     0.000 C
ATOM     59  C2  SGN B   4     -17.548  46.923  11.4770  0.00  0.00     0.000 C
ATOM     60  C3  SGN B   4     -18.940  46.409  11.8300  0.00  0.00     0.000 C
ATOM     61  C4  SGN B   4     -19.021  46.001  13.3050  0.00  0.00     0.000 C
ATOM     62  C5  SGN B   4     -18.535  47.181  14.1430  0.00  0.00     0.000 C
ATOM     63  O5  SGN B   4     -17.244  47.599  13.7430  0.00  0.00     0.000 O
ATOM     64   O  SGN B   4     -19.221  45.275  11.0350  0.00  0.00     0.000 O
ATOM     66  HD  SGN B   4     -19.377  44.536  11.4590  0.00  0.00     0.000 HD
BRANCH 59 68
ATOM     66   N  SGN B   4     -16.354  46.714  10.6830  0.00  0.00     0.000 N
ATOM     68  HD  SGN B   4     -16.557  47.057  11.4510  0.00  0.00     0.000 HD
ATOM     68 @NS  SGN B   4     -16.065  47.656   9.3720  0.00  0.00     0.000 S
ATOM     69   O  SGN B   4     -17.314  47.913   8.7180  0.00  0.00     0.000 OA
ATOM     70   O  SGN B   4     -15.480  48.867   9.8730  0.00  0.00     0.000 OA
ATOM     71   O  SGN B   4     -15.168  46.881   8.5690  0.00  0.00     0.000 OA
ENDBRANCH 59 68
BRANCH 62 72
ATOM     72   C  SGN B   4     -18.449  46.856  15.6270  0.00  0.00     0.000 C
ATOM     73   O  SGN B   4     -17.175  46.315  15.8180  0.00  0.00     0.000 O
ATOM     74  @S  SGN B   4     -16.295  46.414  17.0760  0.00  0.00     0.000 S
ATOM     75   O  SGN B   4     -17.030  45.856  18.1510  0.00  0.00     0.000 OA
ATOM     76   O  SGN B   4     -15.134  45.642  16.7530  0.00  0.00     0.000 OA
ATOM     77   O  SGN B   4     -16.058  47.804  17.2760  0.00  0.00     0.000 OA
ENDBRANCH 62 72
BRANCH 58 78
ATOM     78  O4  IDS B   5     -18.009  49.177  12.1780  0.00  0.00     0.000 O
BRANCH 78 82
ATOM     79  C1  IDS B   5     -19.526  52.264  12.5840  0.00  0.00     0.000 C
ATOM     80  C2  IDS B   5     -19.331  51.720  11.2010  0.00  0.00     0.000 C
ATOM     81  C3  IDS B   5     -17.910  51.237  10.9240  0.00  0.00     0.000 C
ATOM     82  C4  IDS B   5     -17.340  50.414  12.0610  0.00  0.00     0.000 C
ATOM     83  C5  IDS B   5     -17.540  51.191  13.3230  0.00  0.00     0.000 C
ATOM     84  O5  IDS B   5     -18.923  51.404  13.5330  0.00  0.00     0.000 O
ATOM     85   O  IDS B   5     -17.094  52.372  10.7670  0.00  0.00     0.000 O
ATOM     87  HD  IDS B   5     -16.984  51.698  11.3000  0.00  0.00     0.000 HD
BRANCH 80 87
ATOM     87   O  IDS B   5     -20.160  50.637  11.0450  0.00  0.00     0.000 O
ATOM     88  @S  IDS B   5     -21.533  50.617  10.3690  0.00  0.00     0.000 S
ATOM     89   O  IDS B   5     -21.321  51.191   9.0890  0.00  0.00     0.000 OA
ATOM     90   O  IDS B   5     -21.920  49.250  10.3390  0.00  0.00     0.000 OA
ATOM     91   O  IDS B   5     -22.389  51.396  11.1940  0.00  0.00     0.000 OA
ENDBRANCH 80 87
BRANCH 83 92
ATOM     92 @CA  IDS B   5     -16.850  50.578  14.5360  0.00  0.00     0.000 C
ATOM     93   O  IDS B   5     -15.638  50.349  14.5280  0.00  0.00     0.000 OA
ATOM     94   O  IDS B   5     -17.496  50.295  15.5520  0.00  0.00     0.000 OA
ENDBRANCH 83 92
BRANCH 79 95
ATOM     95  O4  SGN B   6     -19.021  53.556  12.6490  0.00  0.00     0.000 O
BRANCH 95 99
ATOM     96  C1  SGN B   6     -18.683  56.497  15.5560  0.00  0.00     0.000 C
ATOM     97  C2  SGN B   6     -18.032  55.158  15.8840  0.00  0.00     0.000 C
ATOM     98  C3  SGN B   6     -17.783  54.456  14.5480  0.00  0.00     0.000 C
ATOM     99  C4  SGN B   6     -19.174  54.184  13.9090  0.00  0.00     0.000 C
ATOM    100  C5  SGN B   6     -19.847  55.571  13.7020  0.00  0.00     0.000 C
ATOM    101  O5  SGN B   6     -19.933  56.296  14.9250  0.00  0.00     0.000 O
BRANCH 97 104
ATOM    102   N  SGN B   6     -18.073  54.662  17.2620  0.00  0.00     0.000 N
ATOM    104  HD  SGN B   6     -18.258  55.314  17.8010  0.00  0.00     0.000 HD
ATOM    104 @NS  SGN B   6     -16.941  55.248  18.3240  0.00  0.00     0.000 S
ATOM    105   O  SGN B   6     -16.129  56.212  17.6120  0.00  0.00     0.000 OA
ATOM    106   O  SGN B   6     -17.668  55.849  19.4180  0.00  0.00     0.000 OA
ATOM    107   O  SGN B   6     -16.157  54.108  18.7420  0.00  0.00     0.000 OA
ENDBRANCH 97 104
BRANCH 100 108
ATOM    108   C  SGN B   6     -21.258  55.552  13.1250  0.00  0.00     0.000 C
ATOM    109   O  SGN B   6     -22.147  56.130  14.0490  0.00  0.00     0.000 O
ATOM    110  @S  SGN B   6     -23.696  56.301  13.8500  0.00  0.00     0.000 S
ATOM    111   O  SGN B   6     -24.152  55.087  13.2170  0.00  0.00     0.000 OA
ATOM    112   O  SGN B   6     -24.264  56.473  15.1780  0.00  0.00     0.000 OA
ATOM    113   O  SGN B   6     -23.857  57.465  13.0080  0.00  0.00     0.000 OA
ENDBRANCH 100 108
ENDBRANCH 95 99
ENDBRANCH 79 95
ENDBRANCH 78 82
ENDBRANCH 58 78
ENDBRANCH 57 61
ENDBRANCH 41 57
ENDBRANCH 40 44
ENDBRANCH 20 40
ENDBRANCH 19 23
ENDBRANCH 1 19
TORSDOF 22
ENDMDL
MODEL 23
REMARK VINA RESULT:       0.7      2.590      9.008
ROOT
ATOM      1  C1  IDS B   1     -22.196  48.132  12.6290  0.00  0.00     0.000 C
ATOM      2  C2  IDS B   1     -23.364  48.110  13.5790  0.00  0.00     0.000 C
ATOM      3  C3  IDS B   1     -24.209  49.405  13.6480  0.00  0.00     0.000 C
ATOM      4  C4  IDS B   1     -24.196  50.241  12.3140  0.00  0.00     0.000 C
ATOM      5  C5  IDS B   1     -22.894  50.044  11.4990  0.00  0.00     0.000 C
ATOM      6  O5  IDS B   1     -22.597  48.678  11.3890  0.00  0.00     0.000 O
ATOM      7   O  IDS B   1     -23.715  50.174  14.7390  0.00  0.00     0.000 O
ATOM      9  HD  IDS B   1     -24.107  50.697  14.1710  0.00  0.00     0.000 HD
ATOM      9   O  IDS B   1     -25.276  49.801  11.5210  0.00  0.00     0.000 O
ATOM     11  HD  IDS B   1     -25.668  50.323  10.9530  0.00  0.00     0.000 HD
ENDROOT
BRANCH 2 11
ATOM     11   O  IDS B   1     -24.235  47.092  13.2240  0.00  0.00     0.000 O
ATOM     12  @S  IDS B   1     -24.252  45.694  13.8710  0.00  0.00     0.000 S
ATOM     13   O  IDS B   1     -22.895  45.515  14.3460  0.00  0.00     0.000 OA
ATOM     14   O  IDS B   1     -25.218  45.749  14.9540  0.00  0.00     0.000 OA
ATOM     15   O  IDS B   1     -24.638  44.775  12.8190  0.00  0.00     0.000 OA
ENDBRANCH 2 11
BRANCH 5 16
ATOM     16 @CA  IDS B   1     -22.849  50.694  10.1200  0.00  0.00     0.000 C
ATOM     17   O  IDS B   1     -23.838  51.231   9.6270  0.00  0.00     0.000 OA
ATOM     18   O  IDS B   1     -21.805  50.707   9.4710  0.00  0.00     0.000 OA
ENDBRANCH 5 16
BRANCH 1 19
ATOM     19  O4  SGN B   2     -21.172  48.909  13.2140  0.00  0.00     0.000 O
BRANCH 19 23
ATOM     20  C1  SGN B   2     -17.156  48.316  13.7430  0.00  0.00     0.000 C
ATOM     21  C2  SGN B   2     -17.698  48.403  12.3340  0.00  0.00     0.000 C
ATOM     22  C3  SGN B   2     -18.970  49.171  12.3400  0.00  0.00     0.000 C
ATOM     23  C4  SGN B   2     -19.914  48.337  13.1770  0.00  0.00     0.000 C
ATOM     24  C5  SGN B   2     -19.351  48.375  14.5550  0.00  0.00     0.000 C
ATOM     25  O5  SGN B   2     -18.139  47.714  14.5740  0.00  0.00     0.000 O
ATOM     26   O  SGN B   2     -19.446  49.287  11.0460  0.00  0.00     0.000 O
ATOM     28  HD  SGN B   2     -19.870  49.226  10.2930  0.00  0.00     0.000 HD
BRANCH 21 30
ATOM     28   N  SGN B   2     -16.408  48.896  11.9470  0.00  0.00     0.000 N
ATOM     30  HD  SGN B   2     -16.655  49.409  11.2950  0.00  0.00     0.000 HD
ATOM     30 @NS  SGN B   2     -15.557  47.990  10.9000  0.00  0.00     0.000 S
ATOM     31   O  SGN B   2     -16.369  46.913  10.4440  0.00  0.00     0.000 OA
ATOM     32   O  SGN B   2     -15.255  48.885   9.8600  0.00  0.00     0.000 OA
ATOM     33   O  SGN B   2     -14.432  47.514  11.6130  0.00  0.00     0.000 OA
ENDBRANCH 21 30
BRANCH 24 34
ATOM     34   C  SGN B   2     -20.196  47.751  15.6040  0.00  0.00     0.000 C
ATOM     35   O  SGN B   2     -20.704  48.769  16.3910  0.00  0.00     0.000 O
ATOM     36  @S  SGN B   2     -21.787  48.558  17.4430  0.00  0.00     0.000 S
ATOM     37   O  SGN B   2     -21.050  48.291  18.6630  0.00  0.00     0.000 OA
ATOM     38   O  SGN B   2     -22.564  49.774  17.4900  0.00  0.00     0.000 OA
ATOM     39   O  SGN B   2     -22.566  47.424  16.9660  0.00  0.00     0.000 OA
ENDBRANCH 24 34
BRANCH 20 40
ATOM     40  O4  IDS B   3     -16.804  49.581  14.2100  0.00  0.00     0.000 O
BRANCH 40 44
ATOM     41  C1  IDS B   3     -14.627  51.696  15.9690  0.00  0.00     0.000 C
ATOM     42  C2  IDS B   3     -14.153  50.329  15.4810  0.00  0.00     0.000 C
ATOM     43  C3  IDS B   3     -15.106  49.152  15.7680  0.00  0.00     0.000 C
ATOM     44  C4  IDS B   3     -16.551  49.565  15.5760  0.00  0.00     0.000 C
ATOM     45  C5  IDS B   3     -16.843  50.947  16.1820  0.00  0.00     0.000 C
ATOM     46  O5  IDS B   3     -15.995  51.895  15.6450  0.00  0.00     0.000 O
ATOM     47   O  IDS B   3     -14.940  48.731  17.1060  0.00  0.00     0.000 O
ATOM     49  HD  IDS B   3     -15.145  48.644  16.2690  0.00  0.00     0.000 HD
BRANCH 42 49
ATOM     49   O  IDS B   3     -13.978  50.388  14.0940  0.00  0.00     0.000 O
ATOM     50   O  IDS B   3     -11.969  51.592  14.3500  0.00  0.00     0.000 OA
ATOM     51   O  IDS B   3     -12.115  49.939  12.6610  0.00  0.00     0.000 OA
ATOM     52   O  IDS B   3     -13.362  51.935  12.4850  0.00  0.00     0.000 OA
ATOM     53  @S  IDS B   3     -12.783  50.995  13.3550  0.00  0.00     0.000 S
ENDBRANCH 42 49
BRANCH 45 54
ATOM     54 @CA  IDS B   3     -18.289  51.422  16.0610  0.00  0.00     0.000 C
ATOM     55   O  IDS B   3     -18.750  51.776  15.0090  0.00  0.00     0.000 OA
ATOM     56   O  IDS B   3     -19.014  51.437  16.9990  0.00  0.00     0.000 OA
ENDBRANCH 45 54
BRANCH 41 57
ATOM     57  O4  SGN B   4     -14.402  51.806  17.3360  0.00  0.00     0.000 O
BRANCH 57 61
ATOM     58  C1  SGN B   4     -15.865  55.629  17.8290  0.00  0.00     0.000 C
ATOM     59  C2  SGN B   4     -14.503  55.529  17.1630  0.00  0.00     0.000 C
ATOM     60  C3  SGN B   4     -14.262  54.097  16.6930  0.00  0.00     0.000 C
ATOM     61  C4  SGN B   4     -14.413  53.103  17.8490  0.00  0.00     0.000 C
ATOM     62  C5  SGN B   4     -15.770  53.349  18.5040  0.00  0.00     0.000 C
ATOM     63  O5  SGN B   4     -15.912  54.700  18.8990  0.00  0.00     0.000 O
ATOM     64   O  SGN B   4     -12.946  54.001  16.1860  0.00  0.00     0.000 O
ATOM     66  HD  SGN B   4     -12.422  53.437  16.5830  0.00  0.00     0.000 HD
BRANCH 59 68
ATOM     66   N  SGN B   4     -13.803  56.796  17.2240  0.00  0.00     0.000 N
ATOM     68  HD  SGN B   4     -14.349  56.343  17.7220  0.00  0.00     0.000 HD
ATOM     68 @NS  SGN B   4     -14.319  58.062  16.3190  0.00  0.00     0.000 S
ATOM     69   O  SGN B   4     -14.761  57.559  15.0520  0.00  0.00     0.000 OA
ATOM     70   O  SGN B   4     -15.399  58.661  17.0480  0.00  0.00     0.000 OA
ATOM     71   O  SGN B   4     -13.170  58.909  16.2070  0.00  0.00     0.000 OA
ENDBRANCH 59 68
BRANCH 62 72
ATOM     72   C  SGN B   4     -15.987  52.504  19.7500  0.00  0.00     0.000 C
ATOM     73   O  SGN B   4     -16.660  51.361  19.3150  0.00  0.00     0.000 O
ATOM     74  @S  SGN B   4     -16.570  49.941  19.9020  0.00  0.00     0.000 S
ATOM     75   O  SGN B   4     -16.951  50.021  21.2630  0.00  0.00     0.000 OA
ATOM     76   O  SGN B   4     -17.499  49.180  19.1220  0.00  0.00     0.000 OA
ATOM     77   O  SGN B   4     -15.207  49.550  19.7650  0.00  0.00     0.000 OA
ENDBRANCH 62 72
BRANCH 58 78
ATOM     78  O4  IDS B   5     -16.889  55.408  16.8810  0.00  0.00     0.000 O
BRANCH 78 82
ATOM     79  C1  IDS B   5     -19.580  55.388  14.7000  0.00  0.00     0.000 C
ATOM     80  C2  IDS B   5     -18.394  56.251  14.3930  0.00  0.00     0.000 C
ATOM     81  C3  IDS B   5     -17.950  57.127  15.5610  0.00  0.00     0.000 C
ATOM     82  C4  IDS B   5     -17.916  56.376  16.8760  0.00  0.00     0.000 C
ATOM     83  C5  IDS B   5     -19.231  55.682  17.0320  0.00  0.00     0.000 C
ATOM     84  O5  IDS B   5     -19.416  54.772  15.9650  0.00  0.00     0.000 O
ATOM     85   O  IDS B   5     -18.881  58.174  15.6910  0.00  0.00     0.000 O
ATOM     87  HD  IDS B   5     -18.611  57.614  16.2940  0.00  0.00     0.000 HD
BRANCH 80 87
ATOM     87   O  IDS B   5     -17.337  55.433  14.0810  0.00  0.00     0.000 O
ATOM     88  @S  IDS B   5     -16.706  55.227  12.7010  0.00  0.00     0.000 S
ATOM     89   O  IDS B   5     -16.397  56.532  12.2400  0.00  0.00     0.000 OA
ATOM     90   O  IDS B   5     -15.571  54.402  12.9240  0.00  0.00     0.000 OA
ATOM     91   O  IDS B   5     -17.692  54.576  11.9120  0.00  0.00     0.000 OA
ENDBRANCH 80 87
BRANCH 83 92
ATOM     92 @CA  IDS B   5     -19.424  55.033  18.3980  0.00  0.00     0.000 C
ATOM     93   O  IDS B   5     -20.134  54.033  18.5300  0.00  0.00     0.000 OA
ATOM     94   O  IDS B   5     -18.874  55.502  19.4010  0.00  0.00     0.000 OA
ENDBRANCH 83 92
BRANCH 79 95
ATOM     95  O4  SGN B   6     -20.738  56.152  14.6340  0.00  0.00     0.000 O
BRANCH 95 99
ATOM     96  C1  SGN B   6     -24.783  55.379  14.1320  0.00  0.00     0.000 C
ATOM     97  C2  SGN B   6     -24.062  54.513  15.1570  0.00  0.00     0.000 C
ATOM     98  C3  SGN B   6     -22.813  55.287  15.5810  0.00  0.00     0.000 C
ATOM     99  C4  SGN B   6     -21.909  55.417  14.3230  0.00  0.00     0.000 C
ATOM    100  C5  SGN B   6     -22.731  56.206  13.2640  0.00  0.00     0.000 C
ATOM    101  O5  SGN B   6     -23.973  55.566  12.9880  0.00  0.00     0.000 O
BRANCH 97 104
ATOM    102   N  SGN B   6     -24.680  53.987  16.3780  0.00  0.00     0.000 N
ATOM    104  HD  SGN B   6     -24.440  53.164  16.4950  0.00  0.00     0.000 HD
ATOM    104 @NS  SGN B   6     -25.766  52.744  16.2160  0.00  0.00     0.000 S
ATOM    105   O  SGN B   6     -25.842  52.408  14.8110  0.00  0.00     0.000 OA
ATOM    106   O  SGN B   6     -25.266  51.648  17.0130  0.00  0.00     0.000 OA
ATOM    107   O  SGN B   6     -27.029  53.250  16.7040  0.00  0.00     0.000 OA
ENDBRANCH 97 104
BRANCH 100 108
ATOM    108   C  SGN B   6     -22.057  56.415  11.9120  0.00  0.00     0.000 C
ATOM    109   O  SGN B   6     -22.817  55.787  10.9100  0.00  0.00     0.000 O
ATOM    110  @S  SGN B   6     -22.471  55.757   9.3770  0.00  0.00     0.000 S
ATOM    111   O  SGN B   6     -21.044  55.562   9.2960  0.00  0.00     0.000 OA
ATOM    112   O  SGN B   6     -23.210  54.639   8.8110  0.00  0.00     0.000 OA
ATOM    113   O  SGN B   6     -22.891  57.038   8.8560  0.00  0.00     0.000 OA
ENDBRANCH 100 108
ENDBRANCH 95 99
ENDBRANCH 79 95
ENDBRANCH 78 82
ENDBRANCH 58 78
ENDBRANCH 57 61
ENDBRANCH 41 57
ENDBRANCH 40 44
ENDBRANCH 20 40
ENDBRANCH 19 23
ENDBRANCH 1 19
TORSDOF 22
ENDMDL
MODEL 24
REMARK VINA RESULT:       0.7      2.622      8.941
ROOT
ATOM      1  C1  IDS B   1     -22.986  47.653  11.7480  0.00  0.00     0.000 C
ATOM      2  C2  IDS B   1     -24.298  47.333  12.4150  0.00  0.00     0.000 C
ATOM      3  C3  IDS B   1     -25.219  48.539  12.7190  0.00  0.00     0.000 C
ATOM      4  C4  IDS B   1     -25.026  49.748  11.7290  0.00  0.00     0.000 C
ATOM      5  C5  IDS B   1     -23.594  49.819  11.1460  0.00  0.00     0.000 C
ATOM      6  O5  IDS B   1     -23.199  48.556  10.6820  0.00  0.00     0.000 O
ATOM      7   O  IDS B   1     -24.968  48.934  14.0640  0.00  0.00     0.000 O
ATOM      9  HD  IDS B   1     -25.288  49.605  13.6200  0.00  0.00     0.000 HD
ATOM      9   O  IDS B   1     -25.924  49.571  10.6560  0.00  0.00     0.000 O
ATOM     11  HD  IDS B   1     -26.243  50.243  10.2120  0.00  0.00     0.000 HD
ENDROOT
BRANCH 2 11
ATOM     11   O  IDS B   1     -25.031  46.472  11.6130  0.00  0.00     0.000 O
ATOM     12  @S  IDS B   1     -25.868  45.290  12.1400  0.00  0.00     0.000 S
ATOM     13   O  IDS B   1     -25.220  44.935  13.3860  0.00  0.00     0.000 OA
ATOM     14   O  IDS B   1     -27.217  45.790  12.3370  0.00  0.00     0.000 OA
ATOM     15   O  IDS B   1     -25.791  44.265  11.1190  0.00  0.00     0.000 OA
ENDBRANCH 2 11
BRANCH 5 16
ATOM     16 @CA  IDS B   1     -23.349  50.865  10.0630  0.00  0.00     0.000 C
ATOM     17   O  IDS B   1     -22.269  50.954   9.4840  0.00  0.00     0.000 OA
ATOM     18   O  IDS B   1     -24.243  51.642   9.7340  0.00  0.00     0.000 OA
ENDBRANCH 5 16
BRANCH 1 19
ATOM     19  O4  SGN B   2     -22.128  48.214  12.7190  0.00  0.00     0.000 O
BRANCH 19 23
ATOM     20  C1  SGN B   2     -18.315  47.314  13.9060  0.00  0.00     0.000 C
ATOM     21  C2  SGN B   2     -18.616  47.391  12.4260  0.00  0.00     0.000 C
ATOM     22  C3  SGN B   2     -19.801  48.260  12.2070  0.00  0.00     0.000 C
ATOM     23  C4  SGN B   2     -20.935  47.540  12.9000  0.00  0.00     0.000 C
ATOM     24  C5  SGN B   2     -20.598  47.585  14.3500  0.00  0.00     0.000 C
ATOM     25  O5  SGN B   2     -19.466  46.828  14.5820  0.00  0.00     0.000 O
ATOM     26   O  SGN B   2     -20.053  48.365  10.8500  0.00  0.00     0.000 O
ATOM     28  HD  SGN B   2     -20.356  48.309  10.0400  0.00  0.00     0.000 HD
BRANCH 21 30
ATOM     28   N  SGN B   2     -17.328  47.855  11.9990  0.00  0.00     0.000 N
ATOM     30  HD  SGN B   2     -17.540  48.110  11.1990  0.00  0.00     0.000 HD
ATOM     30 @NS  SGN B   2     -16.318  46.749  11.3690  0.00  0.00     0.000 S
ATOM     31   O  SGN B   2     -17.009  45.512  11.2250  0.00  0.00     0.000 OA
ATOM     32   O  SGN B   2     -15.970  47.293  10.1210  0.00  0.00     0.000 OA
ATOM     33   O  SGN B   2     -15.243  46.630  12.2800  0.00  0.00     0.000 OA
ENDBRANCH 21 30
BRANCH 24 34
ATOM     34   C  SGN B   2     -21.650  47.074  15.2640  0.00  0.00     0.000 C
ATOM     35   O  SGN B   2     -22.098  48.140  16.0230  0.00  0.00     0.000 O
ATOM     36  @S  SGN B   2     -23.323  48.072  16.9270  0.00  0.00     0.000 S
ATOM     37   O  SGN B   2     -22.793  47.672  18.2160  0.00  0.00     0.000 OA
ATOM     38   O  SGN B   2     -23.913  49.391  16.9280  0.00  0.00     0.000 OA
ATOM     39   O  SGN B   2     -24.195  47.079  16.3150  0.00  0.00     0.000 OA
ENDBRANCH 24 34
BRANCH 20 40
ATOM     40  O4  IDS B   3     -17.933  48.564  14.3920  0.00  0.00     0.000 O
BRANCH 40 44
ATOM     41  C1  IDS B   3     -15.762  50.866  15.9070  0.00  0.00     0.000 C
ATOM     42  C2  IDS B   3     -15.208  49.663  15.1460  0.00  0.00     0.000 C
ATOM     43  C3  IDS B   3     -15.868  48.309  15.4710  0.00  0.00     0.000 C
ATOM     44  C4  IDS B   3     -17.364  48.464  15.6550  0.00  0.00     0.000 C
ATOM     45  C5  IDS B   3     -17.717  49.703  16.4920  0.00  0.00     0.000 C
ATOM     46  O5  IDS B   3     -17.182  50.839  15.9170  0.00  0.00     0.000 O
ATOM     47   O  IDS B   3     -15.324  47.799  16.6700  0.00  0.00     0.000 O
ATOM     49  HD  IDS B   3     -15.706  47.756  15.8950  0.00  0.00     0.000 HD
BRANCH 42 49
ATOM     49   O  IDS B   3     -15.379  49.887  13.7760  0.00  0.00     0.000 O
ATOM     50   O  IDS B   3     -13.376  51.122  13.6770  0.00  0.00     0.000 OA
ATOM     51   O  IDS B   3     -13.922  49.669  11.8900  0.00  0.00     0.000 OA
ATOM     52   O  IDS B   3     -15.186  51.628  12.2620  0.00  0.00     0.000 OA
ATOM     53  @S  IDS B   3     -14.406  50.616  12.8460  0.00  0.00     0.000 S
ENDBRANCH 42 49
BRANCH 45 54
ATOM     54 @CA  IDS B   3     -19.207  49.913  16.7540  0.00  0.00     0.000 C
ATOM     55   O  IDS B   3     -19.741  49.481  17.7400  0.00  0.00     0.000 OA
ATOM     56   O  IDS B   3     -19.885  50.530  16.0000  0.00  0.00     0.000 OA
ENDBRANCH 45 54
BRANCH 41 57
ATOM     57  O4  SGN B   4     -15.239  50.885  17.1940  0.00  0.00     0.000 O
BRANCH 57 61
ATOM     58  C1  SGN B   4     -16.166  54.861  17.7670  0.00  0.00     0.000 C
ATOM     59  C2  SGN B   4     -14.772  54.583  17.2290  0.00  0.00     0.000 C
ATOM     60  C3  SGN B   4     -14.697  53.153  16.7010  0.00  0.00     0.000 C
ATOM     61  C4  SGN B   4     -15.112  52.144  17.7790  0.00  0.00     0.000 C
ATOM     62  C5  SGN B   4     -16.478  52.566  18.3130  0.00  0.00     0.000 C
ATOM     63  O5  SGN B   4     -16.459  53.905  18.7710  0.00  0.00     0.000 O
ATOM     64   O  SGN B   4     -13.365  52.879  16.3180  0.00  0.00     0.000 O
ATOM     66  HD  SGN B   4     -12.973  52.225  16.7290  0.00  0.00     0.000 HD
BRANCH 59 68
ATOM     66   N  SGN B   4     -13.885  55.714  17.4090  0.00  0.00     0.000 N
ATOM     68  HD  SGN B   4     -14.529  55.332  17.8450  0.00  0.00     0.000 HD
ATOM     68 @NS  SGN B   4     -14.130  57.092  16.5550  0.00  0.00     0.000 S
ATOM     69   O  SGN B   4     -14.560  56.734  15.2360  0.00  0.00     0.000 OA
ATOM     70   O  SGN B   4     -15.148  57.820  17.2560  0.00  0.00     0.000 OA
ATOM     71   O  SGN B   4     -12.856  57.746  16.5630  0.00  0.00     0.000 OA
ENDBRANCH 59 68
BRANCH 62 72
ATOM     72   C  SGN B   4     -16.944  51.711  19.4820  0.00  0.00     0.000 C
ATOM     73   O  SGN B   4     -16.283  50.489  19.3400  0.00  0.00     0.000 O
ATOM     74  @S  SGN B   4     -15.828  49.535  20.4590  0.00  0.00     0.000 S
ATOM     75   O  SGN B   4     -16.979  49.176  21.2010  0.00  0.00     0.000 OA
ATOM     76   O  SGN B   4     -15.263  48.420  19.7610  0.00  0.00     0.000 OA
ATOM     77   O  SGN B   4     -14.909  50.278  21.2530  0.00  0.00     0.000 OA
ENDBRANCH 62 72
BRANCH 58 78
ATOM     78  O4  IDS B   5     -17.107  54.839  16.7130  0.00  0.00     0.000 O
BRANCH 78 82
ATOM     79  C1  IDS B   5     -19.659  55.219  14.4020  0.00  0.00     0.000 C
ATOM     80  C2  IDS B   5     -18.466  56.124  14.3320  0.00  0.00     0.000 C
ATOM     81  C3  IDS B   5     -18.105  56.771  15.6660  0.00  0.00     0.000 C
ATOM     82  C4  IDS B   5     -18.143  55.792  16.8210  0.00  0.00     0.000 C
ATOM     83  C5  IDS B   5     -19.458  55.081  16.7650  0.00  0.00     0.000 C
ATOM     84  O5  IDS B   5     -19.566  54.381  15.5400  0.00  0.00     0.000 O
ATOM     85   O  IDS B   5     -19.054  57.776  15.9270  0.00  0.00     0.000 O
ATOM     87  HD  IDS B   5     -18.816  57.116  16.4340  0.00  0.00     0.000 HD
BRANCH 80 87
ATOM     87   O  IDS B   5     -17.382  55.377  13.9430  0.00  0.00     0.000 O
ATOM     88  @S  IDS B   5     -16.660  55.434  12.5950  0.00  0.00     0.000 S
ATOM     89   O  IDS B   5     -16.335  56.802  12.4090  0.00  0.00     0.000 OA
ATOM     90   O  IDS B   5     -15.533  54.579  12.7340  0.00  0.00     0.000 OA
ATOM     91   O  IDS B   5     -17.585  54.945  11.6330  0.00  0.00     0.000 OA
ENDBRANCH 80 87
BRANCH 83 92
ATOM     92 @CA  IDS B   5     -19.727  54.193  17.9740  0.00  0.00     0.000 C
ATOM     93   O  IDS B   5     -19.887  52.977  17.8450  0.00  0.00     0.000 OA
ATOM     94   O  IDS B   5     -19.794  54.678  19.1100  0.00  0.00     0.000 OA
ENDBRANCH 83 92
BRANCH 79 95
ATOM     95  O4  SGN B   6     -20.820  55.981  14.4040  0.00  0.00     0.000 O
BRANCH 95 99
ATOM     96  C1  SGN B   6     -24.869  55.240  13.8910  0.00  0.00     0.000 C
ATOM     97  C2  SGN B   6     -24.141  54.320  14.8640  0.00  0.00     0.000 C
ATOM     98  C3  SGN B   6     -22.888  55.069  15.3190  0.00  0.00     0.000 C
ATOM     99  C4  SGN B   6     -21.993  55.265  14.0620  0.00  0.00     0.000 C
ATOM    100  C5  SGN B   6     -22.822  56.110  13.0530  0.00  0.00     0.000 C
ATOM    101  O5  SGN B   6     -24.067  55.486  12.7530  0.00  0.00     0.000 O
BRANCH 97 104
ATOM    102   N  SGN B   6     -24.307  52.971  15.4140  0.00  0.00     0.000 N
ATOM    104  HD  SGN B   6     -24.795  52.497  14.8780  0.00  0.00     0.000 HD
ATOM    104 @NS  SGN B   6     -25.839  52.498  15.8390  0.00  0.00     0.000 S
ATOM    105   O  SGN B   6     -26.739  53.584  15.5200  0.00  0.00     0.000 OA
ATOM    106   O  SGN B   6     -26.132  51.305  15.0790  0.00  0.00     0.000 OA
ATOM    107   O  SGN B   6     -25.799  52.249  17.2630  0.00  0.00     0.000 OA
ENDBRANCH 97 104
BRANCH 100 108
ATOM    108   C  SGN B   6     -22.158  56.390  11.7100  0.00  0.00     0.000 C
ATOM    109   O  SGN B   6     -21.694  55.183  11.1580  0.00  0.00     0.000 O
ATOM    110  @S  SGN B   6     -20.945  55.028   9.7850  0.00  0.00     0.000 S
ATOM    111   O  SGN B   6     -20.037  56.147   9.7000  0.00  0.00     0.000 OA
ATOM    112   O  SGN B   6     -20.243  53.756   9.8410  0.00  0.00     0.000 OA
ATOM    113   O  SGN B   6     -21.974  55.066   8.7710  0.00  0.00     0.000 OA
ENDBRANCH 100 108
ENDBRANCH 95 99
ENDBRANCH 79 95
ENDBRANCH 78 82
ENDBRANCH 58 78
ENDBRANCH 57 61
ENDBRANCH 41 57
ENDBRANCH 40 44
ENDBRANCH 20 40
ENDBRANCH 19 23
ENDBRANCH 1 19
TORSDOF 22
ENDMDL
MODEL 25
REMARK VINA RESULT:       0.8      2.013      2.673
ROOT
ATOM      1  C1  IDS B   1     -23.984  56.854  13.4370  0.00  0.00     0.000 C
ATOM      2  C2  IDS B   1     -24.368  57.339  12.0640  0.00  0.00     0.000 C
ATOM      3  C3  IDS B   1     -25.304  56.413  11.2510  0.00  0.00     0.000 C
ATOM      4  C4  IDS B   1     -26.244  55.521  12.1460  0.00  0.00     0.000 C
ATOM      5  C5  IDS B   1     -25.627  55.206  13.5300  0.00  0.00     0.000 C
ATOM      6  O5  IDS B   1     -25.130  56.380  14.1140  0.00  0.00     0.000 O
ATOM      7   O  IDS B   1     -24.480  55.608  10.4140  0.00  0.00     0.000 O
ATOM      9  HD  IDS B   1     -25.235  55.206  10.5500  0.00  0.00     0.000 HD
ATOM      9   O  IDS B   1     -27.441  56.235  12.3560  0.00  0.00     0.000 O
ATOM     11  HD  IDS B   1     -28.196  55.833  12.4920  0.00  0.00     0.000 HD
ENDROOT
BRANCH 2 11
ATOM     11   O  IDS B   1     -25.017  58.560  12.1660  0.00  0.00     0.000 O
ATOM     12  @S  IDS B   1     -24.451  59.894  11.6410  0.00  0.00     0.000 S
ATOM     13   O  IDS B   1     -23.016  59.697  11.6680  0.00  0.00     0.000 OA
ATOM     14   O  IDS B   1     -24.965  60.062  10.2930  0.00  0.00     0.000 OA
ATOM     15   O  IDS B   1     -24.927  60.913  12.5550  0.00  0.00     0.000 OA
ENDBRANCH 2 11
BRANCH 5 16
ATOM     16 @CA  IDS B   1     -26.522  54.474  14.5250  0.00  0.00     0.000 C
ATOM     17   O  IDS B   1     -27.640  54.071  14.2110  0.00  0.00     0.000 OA
ATOM     18   O  IDS B   1     -26.134  54.257  15.6710  0.00  0.00     0.000 OA
ENDBRANCH 5 16
BRANCH 1 19
ATOM     19  O4  SGN B   2     -23.028  55.825  13.2840  0.00  0.00     0.000 O
BRANCH 19 23
ATOM     20  C1  SGN B   2     -19.478  55.006  15.1500  0.00  0.00     0.000 C
ATOM     21  C2  SGN B   2     -20.721  55.170  15.9950  0.00  0.00     0.000 C
ATOM     22  C3  SGN B   2     -21.922  54.877  15.1700  0.00  0.00     0.000 C
ATOM     23  C4  SGN B   2     -21.916  55.941  14.0960  0.00  0.00     0.000 C
ATOM     24  C5  SGN B   2     -20.711  55.653  13.2680  0.00  0.00     0.000 C
ATOM     25  O5  SGN B   2     -19.574  55.866  14.0230  0.00  0.00     0.000 O
ATOM     26   O  SGN B   2     -23.058  54.986  15.9520  0.00  0.00     0.000 O
ATOM     28  HD  SGN B   2     -23.793  55.221  16.3470  0.00  0.00     0.000 HD
BRANCH 21 30
ATOM     28   N  SGN B   2     -19.988  55.783  17.0640  0.00  0.00     0.000 N
ATOM     30  HD  SGN B   2     -19.187  55.574  16.8090  0.00  0.00     0.000 HD
ATOM     30 @NS  SGN B   2     -19.777  54.901  18.4130  0.00  0.00     0.000 S
ATOM     31   O  SGN B   2     -20.261  53.580  18.1900  0.00  0.00     0.000 OA
ATOM     32   O  SGN B   2     -18.385  54.915  18.6020  0.00  0.00     0.000 OA
ATOM     33   O  SGN B   2     -20.515  55.551  19.4290  0.00  0.00     0.000 OA
ENDBRANCH 21 30
BRANCH 24 34
ATOM     34   C  SGN B   2     -20.571  56.477  12.0420  0.00  0.00     0.000 C
ATOM     35   O  SGN B   2     -19.319  57.065  12.0740  0.00  0.00     0.000 O
ATOM     36  @S  SGN B   2     -18.712  57.814  10.8940  0.00  0.00     0.000 S
ATOM     37   O  SGN B   2     -19.112  59.192  11.1020  0.00  0.00     0.000 OA
ATOM     38   O  SGN B   2     -17.284  57.610  10.9630  0.00  0.00     0.000 OA
ATOM     39   O  SGN B   2     -19.299  57.202   9.7100  0.00  0.00     0.000 OA
ENDBRANCH 24 34
BRANCH 20 40
ATOM     40  O4  IDS B   3     -19.323  53.676  14.7610  0.00  0.00     0.000 O
BRANCH 40 44
ATOM     41  C1  IDS B   3     -17.390  50.776  14.3640  0.00  0.00     0.000 C
ATOM     42  C2  IDS B   3     -16.963  51.865  15.3460  0.00  0.00     0.000 C
ATOM     43  C3  IDS B   3     -17.010  53.307  14.8050  0.00  0.00     0.000 C
ATOM     44  C4  IDS B   3     -18.226  53.517  13.9250  0.00  0.00     0.000 C
ATOM     45  C5  IDS B   3     -18.458  52.336  12.9690  0.00  0.00     0.000 C
ATOM     46  O5  IDS B   3     -18.575  51.158  13.6810  0.00  0.00     0.000 O
ATOM     47   O  IDS B   3     -15.855  53.554  14.0310  0.00  0.00     0.000 O
ATOM     49  HD  IDS B   3     -16.529  53.760  14.5330  0.00  0.00     0.000 HD
BRANCH 42 49
ATOM     49   O  IDS B   3     -17.807  51.815  16.4600  0.00  0.00     0.000 O
ATOM     50   O  IDS B   3     -16.450  50.182  17.4790  0.00  0.00     0.000 OA
ATOM     51   O  IDS B   3     -17.409  51.881  18.8190  0.00  0.00     0.000 OA
ATOM     52   O  IDS B   3     -18.775  50.225  17.8380  0.00  0.00     0.000 OA
ATOM     53  @S  IDS B   3     -17.594  50.979  17.7260  0.00  0.00     0.000 S
ENDBRANCH 42 49
BRANCH 45 54
ATOM     54 @CA  IDS B   3     -19.647  52.486  12.0230  0.00  0.00     0.000 C
ATOM     55   O  IDS B   3     -20.747  52.111  12.3280  0.00  0.00     0.000 OA
ATOM     56   O  IDS B   3     -19.529  52.999  10.9600  0.00  0.00     0.000 OA
ENDBRANCH 45 54
BRANCH 41 57
ATOM     57  O4  SGN B   4     -16.351  50.512  13.4800  0.00  0.00     0.000 O
BRANCH 57 61
ATOM     58  C1  SGN B   4     -17.790  46.822  12.3350  0.00  0.00     0.000 C
ATOM     59  C2  SGN B   4     -16.951  46.835  13.6010  0.00  0.00     0.000 C
ATOM     60  C3  SGN B   4     -16.819  48.264  14.1200  0.00  0.00     0.000 C
ATOM     61  C4  SGN B   4     -16.249  49.193  13.0410  0.00  0.00     0.000 C
ATOM     62  C5  SGN B   4     -17.107  49.035  11.7880  0.00  0.00     0.000 C
ATOM     63  O5  SGN B   4     -17.183  47.681  11.3840  0.00  0.00     0.000 O
ATOM     64   O  SGN B   4     -15.939  48.267  15.2250  0.00  0.00     0.000 O
ATOM     66  HD  SGN B   4     -15.226  48.752  15.1480  0.00  0.00     0.000 HD
BRANCH 59 68
ATOM     66   N  SGN B   4     -17.584  45.986  14.5900  0.00  0.00     0.000 N
ATOM     68  HD  SGN B   4     -16.874  46.478  14.5320  0.00  0.00     0.000 HD
ATOM     68 @NS  SGN B   4     -17.511  44.355  14.4380  0.00  0.00     0.000 S
ATOM     69   O  SGN B   4     -17.624  44.027  13.0470  0.00  0.00     0.000 OA
ATOM     70   O  SGN B   4     -16.236  43.962  14.9640  0.00  0.00     0.000 OA
ATOM     71   O  SGN B   4     -18.617  43.877  15.2110  0.00  0.00     0.000 OA
ENDBRANCH 59 68
BRANCH 62 72
ATOM     72   C  SGN B   4     -16.565  49.815  10.6000  0.00  0.00     0.000 C
ATOM     73   O  SGN B   4     -15.181  49.628  10.6280  0.00  0.00     0.000 O
ATOM     74  @S  SGN B   4     -14.218  49.581   9.4290  0.00  0.00     0.000 S
ATOM     75   O  SGN B   4     -14.347  50.809   8.7360  0.00  0.00     0.000 OA
ATOM     76   O  SGN B   4     -12.925  49.426  10.0240  0.00  0.00     0.000 OA
ATOM     77   O  SGN B   4     -14.648  48.485   8.6280  0.00  0.00     0.000 OA
ENDBRANCH 62 72
BRANCH 58 78
ATOM     78  O4  IDS B   5     -19.120  47.200  12.6280  0.00  0.00     0.000 O
BRANCH 78 82
ATOM     79  C1  IDS B   5     -22.514  47.389  13.2930  0.00  0.00     0.000 C
ATOM     80  C2  IDS B   5     -21.720  46.250  13.8550  0.00  0.00     0.000 C
ATOM     81  C3  IDS B   5     -20.854  45.533  12.8220  0.00  0.00     0.000 C
ATOM     82  C4  IDS B   5     -20.112  46.493  11.9150  0.00  0.00     0.000 C
ATOM     83  C5  IDS B   5     -21.109  47.470  11.3790  0.00  0.00     0.000 C
ATOM     84  O5  IDS B   5     -21.696  48.182  12.4510  0.00  0.00     0.000 O
ATOM     85   O  IDS B   5     -21.705  44.755  12.0140  0.00  0.00     0.000 O
ATOM     87  HD  IDS B   5     -21.121  45.347  11.7700  0.00  0.00     0.000 HD
BRANCH 80 87
ATOM     87   O  IDS B   5     -20.871  46.748  14.8120  0.00  0.00     0.000 O
ATOM     88  @S  IDS B   5     -20.986  46.571  16.3280  0.00  0.00     0.000 S
ATOM     89   O  IDS B   5     -21.093  45.171  16.5280  0.00  0.00     0.000 OA
ATOM     90   O  IDS B   5     -19.805  47.149  16.8660  0.00  0.00     0.000 OA
ATOM     91   O  IDS B   5     -22.153  47.281  16.7190  0.00  0.00     0.000 OA
ENDBRANCH 80 87
BRANCH 83 92
ATOM     92 @CA  IDS B   5     -20.549  48.390  10.3010  0.00  0.00     0.000 C
ATOM     93   O  IDS B   5     -19.766  47.965   9.4480  0.00  0.00     0.000 OA
ATOM     94   O  IDS B   5     -20.866  49.585  10.2650  0.00  0.00     0.000 OA
ENDBRANCH 83 92
BRANCH 79 95
ATOM     95  O4  SGN B   6     -23.629  46.895  12.6290  0.00  0.00     0.000 O
BRANCH 95 99
ATOM     96  C1  SGN B   6     -27.027  48.618  10.9880  0.00  0.00     0.000 C
ATOM     97  C2  SGN B   6     -25.756  49.457  10.9220  0.00  0.00     0.000 C
ATOM     98  C3  SGN B   6     -24.584  48.483  11.0430  0.00  0.00     0.000 C
ATOM     99  C4  SGN B   6     -24.673  47.835  12.4540  0.00  0.00     0.000 C
ATOM    100  C5  SGN B   6     -26.037  47.089  12.5150  0.00  0.00     0.000 C
ATOM    101  O5  SGN B   6     -27.124  47.968  12.2400  0.00  0.00     0.000 O
BRANCH 97 104
ATOM    102   N  SGN B   6     -26.419  50.759  11.0450  0.00  0.00     0.000 N
ATOM    104  HD  SGN B   6     -27.042  50.826  10.4470  0.00  0.00     0.000 HD
ATOM    104 @NS  SGN B   6     -26.280  51.815   9.7730  0.00  0.00     0.000 S
ATOM    105   O  SGN B   6     -25.510  51.158   8.7390  0.00  0.00     0.000 OA
ATOM    106   O  SGN B   6     -27.623  52.125   9.3400  0.00  0.00     0.000 OA
ATOM    107   O  SGN B   6     -25.585  52.973  10.2900  0.00  0.00     0.000 OA
ENDBRANCH 97 104
BRANCH 100 108
ATOM    108   C  SGN B   6     -26.371  46.409  13.8380  0.00  0.00     0.000 C
ATOM    109   O  SGN B   6     -27.692  46.721  14.2020  0.00  0.00     0.000 O
ATOM    110  @S  SGN B   6     -28.429  46.228  15.5000  0.00  0.00     0.000 S
ATOM    111   O  SGN B   6     -27.453  46.298  16.5610  0.00  0.00     0.000 OA
ATOM    112   O  SGN B   6     -29.538  47.144  15.7160  0.00  0.00     0.000 OA
ATOM    113   O  SGN B   6     -28.854  44.876  15.2190  0.00  0.00     0.000 OA
ENDBRANCH 100 108
ENDBRANCH 95 99
ENDBRANCH 79 95
ENDBRANCH 78 82
ENDBRANCH 58 78
ENDBRANCH 57 61
ENDBRANCH 41 57
ENDBRANCH 40 44
ENDBRANCH 20 40
ENDBRANCH 19 23
ENDBRANCH 1 19
TORSDOF 22
ENDMDL
MODEL 26
REMARK VINA RESULT:       1.0      5.212     10.645
ROOT
ATOM      1  C1  IDS B   1     -16.925  52.074  13.0910  0.00  0.00     0.000 C
ATOM      2  C2  IDS B   1     -16.233  52.780  11.9550  0.00  0.00     0.000 C
ATOM      3  C3  IDS B   1     -16.218  54.326  12.0230  0.00  0.00     0.000 C
ATOM      4  C4  IDS B   1     -16.271  54.896  13.4890  0.00  0.00     0.000 C
ATOM      5  C5  IDS B   1     -17.001  53.948  14.4720  0.00  0.00     0.000 C
ATOM      6  O5  IDS B   1     -16.522  52.639  14.3230  0.00  0.00     0.000 O
ATOM      7   O  IDS B   1     -17.321  54.793  11.2520  0.00  0.00     0.000 O
ATOM      9  HD  IDS B   1     -17.103  55.392  11.8380  0.00  0.00     0.000 HD
ATOM      9   O  IDS B   1     -14.944  55.050  13.9380  0.00  0.00     0.000 O
ATOM     11  HD  IDS B   1     -14.726  55.650  14.5240  0.00  0.00     0.000 HD
ENDROOT
BRANCH 2 11
ATOM     11   O  IDS B   1     -14.908  52.378  11.8950  0.00  0.00     0.000 O
ATOM     12  @S  IDS B   1     -14.189  51.936  10.6060  0.00  0.00     0.000 S
ATOM     13   O  IDS B   1     -15.259  51.440   9.7650  0.00  0.00     0.000 OA
ATOM     14   O  IDS B   1     -13.552  53.120  10.0570  0.00  0.00     0.000 OA
ATOM     15   O  IDS B   1     -13.237  50.921  11.0120  0.00  0.00     0.000 OA
ENDBRANCH 2 11
BRANCH 5 16
ATOM     16 @CA  IDS B   1     -16.973  54.341  15.9460  0.00  0.00     0.000 C
ATOM     17   O  IDS B   1     -17.998  54.372  16.6240  0.00  0.00     0.000 OA
ATOM     18   O  IDS B   1     -15.912  54.626  16.4960  0.00  0.00     0.000 OA
ENDBRANCH 5 16
BRANCH 1 19
ATOM     19  O4  SGN B   2     -18.319  52.213  12.9070  0.00  0.00     0.000 O
BRANCH 19 23
ATOM     20  C1  SGN B   2     -21.466  49.654  13.4570  0.00  0.00     0.000 C
ATOM     21  C2  SGN B   2     -20.813  50.274  14.6730  0.00  0.00     0.000 C
ATOM     22  C3  SGN B   2     -20.146  51.543  14.2820  0.00  0.00     0.000 C
ATOM     23  C4  SGN B   2     -19.069  51.124  13.3080  0.00  0.00     0.000 C
ATOM     24  C5  SGN B   2     -19.800  50.607  12.1170  0.00  0.00     0.000 C
ATOM     25  O5  SGN B   2     -20.476  49.452  12.4590  0.00  0.00     0.000 O
ATOM     26   O  SGN B   2     -19.583  52.132  15.4010  0.00  0.00     0.000 O
ATOM     28  HD  SGN B   2     -19.065  52.437  16.0250  0.00  0.00     0.000 HD
BRANCH 21 30
ATOM     28   N  SGN B   2     -21.093  49.066  15.3930  0.00  0.00     0.000 N
ATOM     30  HD  SGN B   2     -21.726  48.758  14.8890  0.00  0.00     0.000 HD
ATOM     30 @NS  SGN B   2     -22.143  49.172  16.6280  0.00  0.00     0.000 S
ATOM     31   O  SGN B   2     -22.711  50.478  16.6500  0.00  0.00     0.000 OA
ATOM     32   O  SGN B   2     -23.107  48.195  16.3270  0.00  0.00     0.000 OA
ATOM     33   O  SGN B   2     -21.398  48.919  17.8040  0.00  0.00     0.000 OA
ENDBRANCH 21 30
BRANCH 24 34
ATOM     34   C  SGN B   2     -18.951  50.275  10.9450  0.00  0.00     0.000 C
ATOM     35   O  SGN B   2     -18.664  48.923  11.0080  0.00  0.00     0.000 O
ATOM     36  @S  SGN B   2     -17.996  48.153   9.8740  0.00  0.00     0.000 S
ATOM     37   O  SGN B   2     -16.580  48.236  10.1730  0.00  0.00     0.000 OA
ATOM     38   O  SGN B   2     -18.519  46.808   9.9210  0.00  0.00     0.000 OA
ATOM     39   O  SGN B   2     -18.383  48.853   8.6570  0.00  0.00     0.000 OA
ENDBRANCH 24 34
BRANCH 20 40
ATOM     40  O4  IDS B   3     -22.498  50.467  12.9900  0.00  0.00     0.000 O
BRANCH 40 44
ATOM     41  C1  IDS B   3     -25.701  51.227  11.7770  0.00  0.00     0.000 C
ATOM     42  C2  IDS B   3     -25.021  52.139  12.7970  0.00  0.00     0.000 C
ATOM     43  C3  IDS B   3     -24.380  51.428  14.0040  0.00  0.00     0.000 C
ATOM     44  C4  IDS B   3     -23.711  50.136  13.5800  0.00  0.00     0.000 C
ATOM     45  C5  IDS B   3     -24.575  49.334  12.5940  0.00  0.00     0.000 C
ATOM     46  O5  IDS B   3     -24.882  50.104  11.4890  0.00  0.00     0.000 O
ATOM     47   O  IDS B   3     -25.381  51.118  14.9510  0.00  0.00     0.000 O
ATOM     49  HD  IDS B   3     -24.579  51.296  14.6780  0.00  0.00     0.000 HD
BRANCH 42 49
ATOM     49   O  IDS B   3     -24.004  52.850  12.1500  0.00  0.00     0.000 O
ATOM     50   O  IDS B   3     -24.326  54.702  13.5690  0.00  0.00     0.000 OA
ATOM     51   O  IDS B   3     -22.124  54.101  12.9410  0.00  0.00     0.000 OA
ATOM     52   O  IDS B   3     -23.619  54.986  11.3430  0.00  0.00     0.000 OA
ATOM     53  @S  IDS B   3     -23.485  54.240  12.5270  0.00  0.00     0.000 S
ENDBRANCH 42 49
BRANCH 45 54
ATOM     54 @CA  IDS B   3     -23.986  47.999  12.1440  0.00  0.00     0.000 C
ATOM     55   O  IDS B   3     -23.408  47.887  11.0970  0.00  0.00     0.000 OA
ATOM     56   O  IDS B   3     -24.059  47.031  12.8250  0.00  0.00     0.000 OA
ENDBRANCH 45 54
BRANCH 41 57
ATOM     57  O4  SGN B   4     -26.949  50.844  12.2540  0.00  0.00     0.000 O
BRANCH 57 61
ATOM     58  C1  SGN B   4     -30.653  49.892  10.7160  0.00  0.00     0.000 C
ATOM     59  C2  SGN B   4     -29.734  48.713  10.9910  0.00  0.00     0.000 C
ATOM     60  C3  SGN B   4     -28.589  49.151  11.8990  0.00  0.00     0.000 C
ATOM     61  C4  SGN B   4     -27.834  50.344  11.3010  0.00  0.00     0.000 C
ATOM     62  C5  SGN B   4     -28.857  51.431  10.9790  0.00  0.00     0.000 C
ATOM     63  O5  SGN B   4     -29.886  50.936  10.1420  0.00  0.00     0.000 O
ATOM     64   O  SGN B   4     -27.685  48.075  12.0430  0.00  0.00     0.000 O
ATOM     66  HD  SGN B   4     -26.874  48.215  11.7750  0.00  0.00     0.000 HD
BRANCH 59 68
ATOM     66   N  SGN B   4     -30.151  47.517  10.2880  0.00  0.00     0.000 N
ATOM     68  HD  SGN B   4     -30.126  48.370  10.1380  0.00  0.00     0.000 HD
ATOM     68 @NS  SGN B   4     -31.544  46.762  10.7080  0.00  0.00     0.000 S
ATOM     69   O  SGN B   4     -31.679  46.828  12.1330  0.00  0.00     0.000 OA
ATOM     70   O  SGN B   4     -32.600  47.477  10.0510  0.00  0.00     0.000 OA
ATOM     71   O  SGN B   4     -31.380  45.423  10.2290  0.00  0.00     0.000 OA
ENDBRANCH 59 68
BRANCH 62 72
ATOM     72   C  SGN B   4     -28.245  52.623  10.2600  0.00  0.00     0.000 C
ATOM     73   O  SGN B   4     -28.858  53.749  10.8130  0.00  0.00     0.000 O
ATOM     74  @S  SGN B   4     -28.251  55.151  10.9980  0.00  0.00     0.000 S
ATOM     75   O  SGN B   4     -27.859  55.614   9.7180  0.00  0.00     0.000 OA
ATOM     76   O  SGN B   4     -29.319  55.926  11.5520  0.00  0.00     0.000 OA
ATOM     77   O  SGN B   4     -27.126  54.977  11.8550  0.00  0.00     0.000 OA
ENDBRANCH 62 72
BRANCH 58 78
ATOM     78  O4  IDS B   5     -31.300  50.293  11.9070  0.00  0.00     0.000 O
BRANCH 78 82
ATOM     79  C1  IDS B   5     -33.368  51.229  14.5230  0.00  0.00     0.000 C
ATOM     80  C2  IDS B   5     -33.335  49.794  14.0930  0.00  0.00     0.000 C
ATOM     81  C3  IDS B   5     -33.508  49.597  12.5890  0.00  0.00     0.000 C
ATOM     82  C4  IDS B   5     -32.678  50.567  11.7730  0.00  0.00     0.000 C
ATOM     83  C5  IDS B   5     -32.949  51.941  12.2960  0.00  0.00     0.000 C
ATOM     84  O5  IDS B   5     -32.569  52.013  13.6570  0.00  0.00     0.000 O
ATOM     85   O  IDS B   5     -34.861  49.826  12.2790  0.00  0.00     0.000 O
ATOM     87  HD  IDS B   5     -34.158  50.191  11.9280  0.00  0.00     0.000 HD
BRANCH 80 87
ATOM     87   O  IDS B   5     -32.109  49.274  14.4260  0.00  0.00     0.000 O
ATOM     88  @S  IDS B   5     -31.802  48.292  15.5600  0.00  0.00     0.000 S
ATOM     89   O  IDS B   5     -32.694  47.208  15.3600  0.00  0.00     0.000 OA
ATOM     90   O  IDS B   5     -30.430  47.955  15.4060  0.00  0.00     0.000 OA
ATOM     91   O  IDS B   5     -32.045  48.999  16.7680  0.00  0.00     0.000 OA
ENDBRANCH 80 87
BRANCH 83 92
ATOM     92 @CA  IDS B   5     -32.329  53.051  11.4540  0.00  0.00     0.000 C
ATOM     93   O  IDS B   5     -32.332  52.989  10.2220  0.00  0.00     0.000 OA
ATOM     94   O  IDS B   5     -31.807  54.033  11.9940  0.00  0.00     0.000 OA
ENDBRANCH 83 92
BRANCH 79 95
ATOM     95  O4  SGN B   6     -34.685  51.669  14.5660  0.00  0.00     0.000 O
BRANCH 95 99
ATOM     96  C1  SGN B   6     -36.701  54.844  16.3170  0.00  0.00     0.000 C
ATOM     97  C2  SGN B   6     -35.413  55.197  15.5820  0.00  0.00     0.000 C
ATOM     98  C3  SGN B   6     -35.153  54.063  14.5890  0.00  0.00     0.000 C
ATOM     99  C4  SGN B   6     -34.907  52.774  15.4240  0.00  0.00     0.000 C
ATOM    100  C5  SGN B   6     -36.204  52.521  16.2450  0.00  0.00     0.000 C
ATOM    101  O5  SGN B   6     -36.537  53.647  17.0510  0.00  0.00     0.000 O
BRANCH 97 104
ATOM    102   N  SGN B   6     -34.784  56.273  16.3530  0.00  0.00     0.000 N
ATOM    104  HD  SGN B   6     -35.394  56.806  16.6600  0.00  0.00     0.000 HD
ATOM    104 @NS  SGN B   6     -34.940  57.822  15.7790  0.00  0.00     0.000 S
ATOM    105   O  SGN B   6     -35.747  57.766  14.5800  0.00  0.00     0.000 OA
ATOM    106   O  SGN B   6     -35.570  58.592  16.8260  0.00  0.00     0.000 OA
ATOM    107   O  SGN B   6     -33.599  58.278  15.4880  0.00  0.00     0.000 OA
ENDBRANCH 97 104
BRANCH 100 108
ATOM    108   C  SGN B   6     -36.178  51.323  17.1860  0.00  0.00     0.000 C
ATOM    109   O  SGN B   6     -36.583  50.171  16.4880  0.00  0.00     0.000 O
ATOM    110  @S  SGN B   6     -36.701  48.725  17.0910  0.00  0.00     0.000 S
ATOM    111   O  SGN B   6     -37.265  48.889  18.4090  0.00  0.00     0.000 OA
ATOM    112   O  SGN B   6     -37.585  47.982  16.2060  0.00  0.00     0.000 OA
ATOM    113   O  SGN B   6     -35.354  48.201  17.1200  0.00  0.00     0.000 OA
ENDBRANCH 100 108
ENDBRANCH 95 99
ENDBRANCH 79 95
ENDBRANCH 78 82
ENDBRANCH 58 78
ENDBRANCH 57 61
ENDBRANCH 41 57
ENDBRANCH 40 44
ENDBRANCH 20 40
ENDBRANCH 19 23
ENDBRANCH 1 19
TORSDOF 22
ENDMDL
MODEL 27
REMARK VINA RESULT:       1.1      2.114      8.287
ROOT
ATOM      1  C1  IDS B   1     -26.212  56.769  11.4190  0.00  0.00     0.000 C
ATOM      2  C2  IDS B   1     -25.376  57.866  12.0250  0.00  0.00     0.000 C
ATOM      3  C3  IDS B   1     -24.278  58.466  11.1160  0.00  0.00     0.000 C
ATOM      4  C4  IDS B   1     -24.613  58.385   9.5800  0.00  0.00     0.000 C
ATOM      5  C5  IDS B   1     -25.531  57.188   9.2320  0.00  0.00     0.000 C
ATOM      6  O5  IDS B   1     -26.618  57.141  10.1170  0.00  0.00     0.000 O
ATOM      7   O  IDS B   1     -23.065  57.781  11.4110  0.00  0.00     0.000 O
ATOM      9  HD  IDS B   1     -23.024  58.109  10.6100  0.00  0.00     0.000 HD
ATOM      9   O  IDS B   1     -25.291  59.569   9.2260  0.00  0.00     0.000 O
ATOM     11  HD  IDS B   1     -25.251  59.897   8.4250  0.00  0.00     0.000 HD
ENDROOT
BRANCH 2 11
ATOM     11   O  IDS B   1     -26.193  58.920  12.4010  0.00  0.00     0.000 O
ATOM     12  @S  IDS B   1     -25.907  59.866  13.5830  0.00  0.00     0.000 S
ATOM     13   O  IDS B   1     -25.098  59.065  14.4800  0.00  0.00     0.000 OA
ATOM     14   O  IDS B   1     -25.181  61.001  13.0420  0.00  0.00     0.000 OA
ATOM     15   O  IDS B   1     -27.202  60.231  14.1210  0.00  0.00     0.000 OA
ENDBRANCH 2 11
BRANCH 5 16
ATOM     16 @CA  IDS B   1     -26.035  57.110   7.7940  0.00  0.00     0.000 C
ATOM     17   O  IDS B   1     -26.541  56.086   7.3420  0.00  0.00     0.000 OA
ATOM     18   O  IDS B   1     -25.956  58.087   7.0520  0.00  0.00     0.000 OA
ENDBRANCH 5 16
BRANCH 1 19
ATOM     19  O4  SGN B   2     -25.432  55.592  11.3860  0.00  0.00     0.000 O
BRANCH 19 23
ATOM     20  C1  SGN B   2     -26.393  51.636  11.8110  0.00  0.00     0.000 C
ATOM     21  C2  SGN B   2     -26.589  52.290  10.4610  0.00  0.00     0.000 C
ATOM     22  C3  SGN B   2     -25.684  53.464  10.3450  0.00  0.00     0.000 C
ATOM     23  C4  SGN B   2     -26.154  54.414  11.4230  0.00  0.00     0.000 C
ATOM     24  C5  SGN B   2     -25.849  53.729  12.7090  0.00  0.00     0.000 C
ATOM     25  O5  SGN B   2     -26.637  52.600  12.8260  0.00  0.00     0.000 O
ATOM     26   O  SGN B   2     -25.832  54.039   9.0950  0.00  0.00     0.000 O
ATOM     28  HD  SGN B   2     -26.022  54.533   8.4100  0.00  0.00     0.000 HD
BRANCH 21 30
ATOM     28   N  SGN B   2     -26.386  51.348   9.3990  0.00  0.00     0.000 N
ATOM     30  HD  SGN B   2     -26.617  51.851   8.7330  0.00  0.00     0.000 HD
ATOM     30 @NS  SGN B   2     -27.619  50.347   9.0580  0.00  0.00     0.000 S
ATOM     31   O  SGN B   2     -28.758  50.728   9.8230  0.00  0.00     0.000 OA
ATOM     32   O  SGN B   2     -27.832  50.542   7.6830  0.00  0.00     0.000 OA
ATOM     33   O  SGN B   2     -27.182  49.048   9.4070  0.00  0.00     0.000 OA
ENDBRANCH 21 30
BRANCH 24 34
ATOM     34   C  SGN B   2     -26.078  54.539  13.9310  0.00  0.00     0.000 C
ATOM     35   O  SGN B   2     -25.099  54.197  14.8480  0.00  0.00     0.000 O
ATOM     36  @S  SGN B   2     -24.861  54.959  16.1460  0.00  0.00     0.000 S
ATOM     37   O  SGN B   2     -25.690  54.275  17.1190  0.00  0.00     0.000 OA
ATOM     38   O  SGN B   2     -23.447  54.870  16.4270  0.00  0.00     0.000 OA
ATOM     39   O  SGN B   2     -25.282  56.325  15.8700  0.00  0.00     0.000 OA
ENDBRANCH 24 34
BRANCH 20 40
ATOM     40  O4  IDS B   3     -25.108  51.105  11.9150  0.00  0.00     0.000 O
BRANCH 40 44
ATOM     41  C1  IDS B   3     -22.431  49.075  12.9240  0.00  0.00     0.000 C
ATOM     42  C2  IDS B   3     -22.780  49.219  11.4430  0.00  0.00     0.000 C
ATOM     43  C3  IDS B   3     -24.274  49.075  11.0930  0.00  0.00     0.000 C
ATOM     44  C4  IDS B   3     -25.144  49.735  12.1440  0.00  0.00     0.000 C
ATOM     45  C5  IDS B   3     -24.662  49.427  13.5700  0.00  0.00     0.000 C
ATOM     46  O5  IDS B   3     -23.344  49.810  13.7250  0.00  0.00     0.000 O
ATOM     47   O  IDS B   3     -24.610  47.704  11.0370  0.00  0.00     0.000 O
ATOM     49  HD  IDS B   3     -24.686  48.546  10.8470  0.00  0.00     0.000 HD
BRANCH 42 49
ATOM     49   O  IDS B   3     -22.377  50.489  11.0140  0.00  0.00     0.000 O
ATOM     50   O  IDS B   3     -20.451  49.589  10.0000  0.00  0.00     0.000 OA
ATOM     51   O  IDS B   3     -21.616  51.338   8.9100  0.00  0.00     0.000 OA
ATOM     52   O  IDS B   3     -20.443  51.757  10.9150  0.00  0.00     0.000 OA
ATOM     53  @S  IDS B   3     -21.151  50.811  10.1550  0.00  0.00     0.000 S
ENDBRANCH 42 49
BRANCH 45 54
ATOM     54 @CA  IDS B   3     -25.507  50.029  14.6900  0.00  0.00     0.000 C
ATOM     55   O  IDS B   3     -26.641  49.681  14.8820  0.00  0.00     0.000 OA
ATOM     56   O  IDS B   3     -25.064  50.847  15.4260  0.00  0.00     0.000 OA
ENDBRANCH 45 54
BRANCH 41 57
ATOM     57  O4  SGN B   4     -22.414  47.728  13.2680  0.00  0.00     0.000 O
BRANCH 57 61
ATOM     58  C1  SGN B   4     -18.534  48.043  14.6270  0.00  0.00     0.000 C
ATOM     59  C2  SGN B   4     -18.743  47.107  13.4480  0.00  0.00     0.000 C
ATOM     60  C3  SGN B   4     -20.102  47.376  12.8080  0.00  0.00     0.000 C
ATOM     61  C4  SGN B   4     -21.230  47.265  13.8400  0.00  0.00     0.000 C
ATOM     62  C5  SGN B   4     -20.879  48.170  15.0170  0.00  0.00     0.000 C
ATOM     63  O5  SGN B   4     -19.601  47.859  15.5420  0.00  0.00     0.000 O
ATOM     64   O  SGN B   4     -20.325  46.418  11.7940  0.00  0.00     0.000 O
ATOM     66  HD  SGN B   4     -21.020  45.911  11.8900  0.00  0.00     0.000 HD
BRANCH 59 68
ATOM     66   N  SGN B   4     -17.518  46.363  13.6590  0.00  0.00     0.000 N
ATOM     68  HD  SGN B   4     -17.977  46.969  14.0750  0.00  0.00     0.000 HD
ATOM     68 @NS  SGN B   4     -16.170  46.743  12.8070  0.00  0.00     0.000 S
ATOM     69   O  SGN B   4     -16.564  47.094  11.4740  0.00  0.00     0.000 OA
ATOM     70   O  SGN B   4     -15.571  47.858  13.4830  0.00  0.00     0.000 OA
ATOM     71   O  SGN B   4     -15.373  45.555  12.8540  0.00  0.00     0.000 OA
ENDBRANCH 59 68
BRANCH 62 72
ATOM     72   C  SGN B   4     -21.864  48.050  16.1700  0.00  0.00     0.000 C
ATOM     73   O  SGN B   4     -21.332  47.077  17.0190  0.00  0.00     0.000 O
ATOM     74  @S  SGN B   4     -21.471  46.992  18.5490  0.00  0.00     0.000 S
ATOM     75   O  SGN B   4     -22.855  46.933  18.8440  0.00  0.00     0.000 OA
ATOM     76   O  SGN B   4     -20.789  45.782  18.8960  0.00  0.00     0.000 OA
ATOM     77   O  SGN B   4     -20.881  48.184  19.0590  0.00  0.00     0.000 OA
ENDBRANCH 62 72
BRANCH 58 78
ATOM     78  O4  IDS B   5     -18.438  49.379  14.1770  0.00  0.00     0.000 O
BRANCH 78 82
ATOM     79  C1  IDS B   5     -17.627  52.658  13.4090  0.00  0.00     0.000 C
ATOM     80  C2  IDS B   5     -16.598  51.585  13.2200  0.00  0.00     0.000 C
ATOM     81  C3  IDS B   5     -16.421  50.679  14.4360  0.00  0.00     0.000 C
ATOM     82  C4  IDS B   5     -17.742  50.250  15.0420  0.00  0.00     0.000 C
ATOM     83  C5  IDS B   5     -18.564  51.482  15.2480  0.00  0.00     0.000 C
ATOM     84  O5  IDS B   5     -18.792  52.113  14.0020  0.00  0.00     0.000 O
ATOM     85   O  IDS B   5     -15.719  51.406  15.4150  0.00  0.00     0.000 O
ATOM     87  HD  IDS B   5     -16.476  50.992  15.4900  0.00  0.00     0.000 HD
BRANCH 80 87
ATOM     87   O  IDS B   5     -16.998  50.784  12.1790  0.00  0.00     0.000 O
ATOM     88  @S  IDS B   5     -16.583  50.906  10.7110  0.00  0.00     0.000 S
ATOM     89   O  IDS B   5     -15.165  50.920  10.7290  0.00  0.00     0.000 OA
ATOM     90   O  IDS B   5     -17.147  49.774  10.0640  0.00  0.00     0.000 OA
ATOM     91   O  IDS B   5     -17.146  52.124  10.2430  0.00  0.00     0.000 OA
ENDBRANCH 80 87
BRANCH 83 92
ATOM     92 @CA  IDS B   5     -19.852  51.236  16.0260  0.00  0.00     0.000 C
ATOM     93   O  IDS B   5     -20.951  51.499  15.5320  0.00  0.00     0.000 OA
ATOM     94   O  IDS B   5     -19.817  50.772  17.1710  0.00  0.00     0.000 OA
ENDBRANCH 83 92
BRANCH 79 95
ATOM     95  O4  SGN B   6     -17.087  53.691  14.1630  0.00  0.00     0.000 O
BRANCH 95 99
ATOM     96  C1  SGN B   6     -18.494  57.231  15.8050  0.00  0.00     0.000 C
ATOM     97  C2  SGN B   6     -18.949  55.950  16.4940  0.00  0.00     0.000 C
ATOM     98  C3  SGN B   6     -17.931  54.871  16.1240  0.00  0.00     0.000 C
ATOM     99  C4  SGN B   6     -18.026  54.663  14.5850  0.00  0.00     0.000 C
ATOM    100  C5  SGN B   6     -17.667  56.028  13.9290  0.00  0.00     0.000 C
ATOM    101  O5  SGN B   6     -18.516  57.070  14.4000  0.00  0.00     0.000 O
BRANCH 97 104
ATOM    102   N  SGN B   6     -19.506  57.000  17.3520  0.00  0.00     0.000 N
ATOM    104  HD  SGN B   6     -19.247  56.876  18.1690  0.00  0.00     0.000 HD
ATOM    104 @NS  SGN B   6     -20.577  56.540  18.5320  0.00  0.00     0.000 S
ATOM    105   O  SGN B   6     -20.707  55.101  18.4700  0.00  0.00     0.000 OA
ATOM    106   O  SGN B   6     -20.026  56.985  19.7910  0.00  0.00     0.000 OA
ATOM    107   O  SGN B   6     -21.827  57.194  18.2140  0.00  0.00     0.000 OA
ENDBRANCH 97 104
BRANCH 100 108
ATOM    108   C  SGN B   6     -17.742  56.080  12.4080  0.00  0.00     0.000 C
ATOM    109   O  SGN B   6     -18.674  57.059  12.0200  0.00  0.00     0.000 O
ATOM    110  @S  SGN B   6     -19.057  57.429  10.5420  0.00  0.00     0.000 S
ATOM    111   O  SGN B   6     -19.126  56.178   9.8250  0.00  0.00     0.000 OA
ATOM    112   O  SGN B   6     -20.348  58.095  10.6060  0.00  0.00     0.000 OA
ATOM    113   O  SGN B   6     -17.996  58.288  10.0660  0.00  0.00     0.000 OA
ENDBRANCH 100 108
ENDBRANCH 95 99
ENDBRANCH 79 95
ENDBRANCH 78 82
ENDBRANCH 58 78
ENDBRANCH 57 61
ENDBRANCH 41 57
ENDBRANCH 40 44
ENDBRANCH 20 40
ENDBRANCH 19 23
ENDBRANCH 1 19
TORSDOF 22
ENDMDL
MODEL 28
REMARK VINA RESULT:       1.1      3.791     10.111
ROOT
ATOM      1  C1  IDS B   1     -27.069  52.521  11.5670  0.00  0.00     0.000 C
ATOM      2  C2  IDS B   1     -27.353  53.999  11.5000  0.00  0.00     0.000 C
ATOM      3  C3  IDS B   1     -27.336  54.633  10.0890  0.00  0.00     0.000 C
ATOM      4  C4  IDS B   1     -27.719  53.628   8.9390  0.00  0.00     0.000 C
ATOM      5  C5  IDS B   1     -27.362  52.161   9.2850  0.00  0.00     0.000 C
ATOM      6  O5  IDS B   1     -27.814  51.846  10.5740  0.00  0.00     0.000 O
ATOM      7   O  IDS B   1     -26.034  55.172   9.8830  0.00  0.00     0.000 O
ATOM      9  HD  IDS B   1     -26.402  55.005   9.1170  0.00  0.00     0.000 HD
ATOM      9   O  IDS B   1     -29.115  53.702   8.7520  0.00  0.00     0.000 O
ATOM     11  HD  IDS B   1     -29.483  53.535   7.9860  0.00  0.00     0.000 HD
ENDROOT
BRANCH 2 11
ATOM     11   O  IDS B   1     -28.607  54.257  12.0310  0.00  0.00     0.000 O
ATOM     12  @S  IDS B   1     -28.859  54.764  13.4640  0.00  0.00     0.000 S
ATOM     13   O  IDS B   1     -27.711  54.285  14.2080  0.00  0.00     0.000 OA
ATOM     14   O  IDS B   1     -28.911  56.213  13.3910  0.00  0.00     0.000 OA
ATOM     15   O  IDS B   1     -30.118  54.175  13.8760  0.00  0.00     0.000 OA
ENDBRANCH 2 11
BRANCH 5 16
ATOM     16 @CA  IDS B   1     -27.830  51.095   8.2990  0.00  0.00     0.000 C
ATOM     17   O  IDS B   1     -27.497  49.918   8.4170  0.00  0.00     0.000 OA
ATOM     18   O  IDS B   1     -28.569  51.392   7.3640  0.00  0.00     0.000 OA
ENDBRANCH 5 16
BRANCH 1 19
ATOM     19  O4  SGN B   2     -25.683  52.333  11.3700  0.00  0.00     0.000 O
BRANCH 19 23
ATOM     20  C1  SGN B   2     -23.025  49.697  13.0250  0.00  0.00     0.000 C
ATOM     21  C2  SGN B   2     -24.434  49.225  12.7410  0.00  0.00     0.000 C
ATOM     22  C3  SGN B   2     -25.027  50.062  11.6650  0.00  0.00     0.000 C
ATOM     23  C4  SGN B   2     -25.085  51.453  12.2520  0.00  0.00     0.000 C
ATOM     24  C5  SGN B   2     -23.664  51.866  12.4200  0.00  0.00     0.000 C
ATOM     25  O5  SGN B   2     -23.065  51.072  13.3790  0.00  0.00     0.000 O
ATOM     26   O  SGN B   2     -26.301  49.605  11.3750  0.00  0.00     0.000 O
ATOM     28  HD  SGN B   2     -27.153  49.476  11.2910  0.00  0.00     0.000 HD
BRANCH 21 30
ATOM     28   N  SGN B   2     -23.820  47.933  12.6500  0.00  0.00     0.000 N
ATOM     30  HD  SGN B   2     -24.301  47.605  12.0090  0.00  0.00     0.000 HD
ATOM     30 @NS  SGN B   2     -24.383  46.779  13.6470  0.00  0.00     0.000 S
ATOM     31   O  SGN B   2     -25.527  47.272  14.3370  0.00  0.00     0.000 OA
ATOM     32   O  SGN B   2     -24.718  45.727  12.7780  0.00  0.00     0.000 OA
ATOM     33   O  SGN B   2     -23.331  46.486  14.5460  0.00  0.00     0.000 OA
ENDBRANCH 21 30
BRANCH 24 34
ATOM     34   C  SGN B   2     -23.457  53.275  12.8410  0.00  0.00     0.000 C
ATOM     35   O  SGN B   2     -23.744  53.354  14.1910  0.00  0.00     0.000 O
ATOM     36  @S  SGN B   2     -23.448  54.583  15.0430  0.00  0.00     0.000 S
ATOM     37   O  SGN B   2     -24.664  55.368  14.9710  0.00  0.00     0.000 OA
ATOM     38   O  SGN B   2     -23.146  54.104  16.3720  0.00  0.00     0.000 OA
ATOM     39   O  SGN B   2     -22.299  55.217  14.4120  0.00  0.00     0.000 OA
ENDBRANCH 24 34
BRANCH 20 40
ATOM     40  O4  IDS B   3     -22.205  49.483  11.9180  0.00  0.00     0.000 O
BRANCH 40 44
ATOM     41  C1  IDS B   3     -19.278  48.099  10.5670  0.00  0.00     0.000 C
ATOM     42  C2  IDS B   3     -19.796  47.640  11.9290  0.00  0.00     0.000 C
ATOM     43  C3  IDS B   3     -20.203  48.764  12.9010  0.00  0.00     0.000 C
ATOM     44  C4  IDS B   3     -20.901  49.891  12.1660  0.00  0.00     0.000 C
ATOM     45  C5  IDS B   3     -20.198  50.242  10.8460  0.00  0.00     0.000 C
ATOM     46  O5  IDS B   3     -20.105  49.125  10.0390  0.00  0.00     0.000 O
ATOM     47   O  IDS B   3     -19.046  49.289  13.5200  0.00  0.00     0.000 O
ATOM     49  HD  IDS B   3     -19.888  49.096  13.4500  0.00  0.00     0.000 HD
BRANCH 42 49
ATOM     49   O  IDS B   3     -20.927  46.840  11.7280  0.00  0.00     0.000 O
ATOM     50   O  IDS B   3     -19.581  44.995  11.1510  0.00  0.00     0.000 OA
ATOM     51   O  IDS B   3     -21.525  44.641  12.4550  0.00  0.00     0.000 OA
ATOM     52   O  IDS B   3     -21.710  45.293  10.1940  0.00  0.00     0.000 OA
ATOM     53  @S  IDS B   3     -20.935  45.353  11.3650  0.00  0.00     0.000 S
ENDBRANCH 42 49
BRANCH 45 54
ATOM     54 @CA  IDS B   3     -20.821  51.394  10.0600  0.00  0.00     0.000 C
ATOM     55   O  IDS B   3     -20.503  52.535  10.2540  0.00  0.00     0.000 OA
ATOM     56   O  IDS B   3     -21.627  51.196   9.2110  0.00  0.00     0.000 OA
ENDBRANCH 45 54
BRANCH 41 57
ATOM     57  O4  SGN B   4     -17.958  48.515  10.6880  0.00  0.00     0.000 O
BRANCH 57 61
ATOM     58  C1  SGN B   4     -14.186  47.026   9.9410  0.00  0.00     0.000 C
ATOM     59  C2  SGN B   4     -15.265  46.606   8.9560  0.00  0.00     0.000 C
ATOM     60  C3  SGN B   4     -16.483  47.512   9.1060  0.00  0.00     0.000 C
ATOM     61  C4  SGN B   4     -16.993  47.517  10.5520  0.00  0.00     0.000 C
ATOM     62  C5  SGN B   4     -15.816  47.860  11.4620  0.00  0.00     0.000 C
ATOM     63  O5  SGN B   4     -14.729  46.979  11.2500  0.00  0.00     0.000 O
ATOM     64   O  SGN B   4     -17.514  47.030   8.2680  0.00  0.00     0.000 O
ATOM     66  HD  SGN B   4     -18.251  46.798   8.6590  0.00  0.00     0.000 HD
BRANCH 59 68
ATOM     66   N  SGN B   4     -14.669  45.419   8.3760  0.00  0.00     0.000 N
ATOM     68  HD  SGN B   4     -14.563  45.906   9.0850  0.00  0.00     0.000 HD
ATOM     68 @NS  SGN B   4     -13.665  45.552   7.0870  0.00  0.00     0.000 S
ATOM     69   O  SGN B   4     -14.169  46.583   6.2280  0.00  0.00     0.000 OA
ATOM     70   O  SGN B   4     -12.378  45.899   7.6180  0.00  0.00     0.000 OA
ATOM     71   O  SGN B   4     -13.698  44.257   6.4770  0.00  0.00     0.000 OA
ENDBRANCH 59 68
BRANCH 62 72
ATOM     72   C  SGN B   4     -16.167  47.773  12.9390  0.00  0.00     0.000 C
ATOM     73   O  SGN B   4     -16.874  46.578  13.0870  0.00  0.00     0.000 O
ATOM     74  @S  SGN B   4     -16.907  45.655  14.3180  0.00  0.00     0.000 S
ATOM     75   O  SGN B   4     -17.375  46.425  15.4100  0.00  0.00     0.000 OA
ATOM     76   O  SGN B   4     -17.823  44.617  13.9530  0.00  0.00     0.000 OA
ATOM     77   O  SGN B   4     -15.563  45.229  14.5200  0.00  0.00     0.000 OA
ENDBRANCH 62 72
BRANCH 58 78
ATOM     78  O4  IDS B   5     -13.697  48.309   9.6090  0.00  0.00     0.000 O
BRANCH 78 82
ATOM     79  C1  IDS B   5     -11.601  50.975   8.9020  0.00  0.00     0.000 C
ATOM     80  C2  IDS B   5     -11.084  49.577   8.7510  0.00  0.00     0.000 C
ATOM     81  C3  IDS B   5     -11.341  48.690   9.9670  0.00  0.00     0.000 C
ATOM     82  C4  IDS B   5     -12.747  48.836  10.5110  0.00  0.00     0.000 C
ATOM     83  C5  IDS B   5     -13.012  50.297  10.6900  0.00  0.00     0.000 C
ATOM     84  O5  IDS B   5     -12.911  50.952   9.4400  0.00  0.00     0.000 O
ATOM     85   O  IDS B   5     -10.448  49.083  10.9810  0.00  0.00     0.000 O
ATOM     87  HD  IDS B   5     -11.310  49.010  11.0200  0.00  0.00     0.000 HD
BRANCH 80 87
ATOM     87   O  IDS B   5     -11.728  48.993   7.6870  0.00  0.00     0.000 O
ATOM     88  @S  IDS B   5     -11.207  48.864   6.2540  0.00  0.00     0.000 S
ATOM     89   O  IDS B   5      -9.932  48.255   6.3790  0.00  0.00     0.000 OA
ATOM     90   O  IDS B   5     -12.169  48.071   5.5730  0.00  0.00     0.000 OA
ATOM     91   O  IDS B   5     -11.144  50.187   5.7380  0.00  0.00     0.000 OA
ENDBRANCH 80 87
BRANCH 83 92
ATOM     92 @CA  IDS B   5     -14.322  50.599  11.4080  0.00  0.00     0.000 C
ATOM     93   O  IDS B   5     -14.394  50.563  12.6380  0.00  0.00     0.000 OA
ATOM     94   O  IDS B   5     -15.340  50.883  10.7660  0.00  0.00     0.000 OA
ENDBRANCH 83 92
BRANCH 79 95
ATOM     95  O4  SGN B   6     -10.724  51.712   9.6860  0.00  0.00     0.000 O
BRANCH 95 99
ATOM     96  C1  SGN B   6     -10.631  55.568  11.2130  0.00  0.00     0.000 C
ATOM     97  C2  SGN B   6     -11.557  54.591  11.9270  0.00  0.00     0.000 C
ATOM     98  C3  SGN B   6     -11.045  53.187  11.6020  0.00  0.00     0.000 C
ATOM     99  C4  SGN B   6     -11.206  52.987  10.0680  0.00  0.00     0.000 C
ATOM    100  C5  SGN B   6     -10.336  54.080   9.3830  0.00  0.00     0.000 C
ATOM    101  O5  SGN B   6     -10.708  55.386   9.8120  0.00  0.00     0.000 O
BRANCH 97 104
ATOM    102   N  SGN B   6     -12.844  55.041  12.4660  0.00  0.00     0.000 N
ATOM    104  HD  SGN B   6     -12.856  55.906  12.5050  0.00  0.00     0.000 HD
ATOM    104 @NS  SGN B   6     -12.832  55.836  13.9220  0.00  0.00     0.000 S
ATOM    105   O  SGN B   6     -11.454  55.946  14.3510  0.00  0.00     0.000 OA
ATOM    106   O  SGN B   6     -13.438  57.128  13.6960  0.00  0.00     0.000 OA
ATOM    107   O  SGN B   6     -13.601  55.016  14.8310  0.00  0.00     0.000 OA
ENDBRANCH 97 104
BRANCH 100 108
ATOM    108   C  SGN B   6     -10.376  54.111   7.8600  0.00  0.00     0.000 C
ATOM    109   O  SGN B   6     -11.714  54.130   7.4290  0.00  0.00     0.000 O
ATOM    110  @S  SGN B   6     -12.198  54.158   5.9340  0.00  0.00     0.000 S
ATOM    111   O  SGN B   6     -11.321  53.265   5.2160  0.00  0.00     0.000 OA
ATOM    112   O  SGN B   6     -13.574  53.687   5.9390  0.00  0.00     0.000 OA
ATOM    113   O  SGN B   6     -12.069  55.532   5.5060  0.00  0.00     0.000 OA
ENDBRANCH 100 108
ENDBRANCH 95 99
ENDBRANCH 79 95
ENDBRANCH 78 82
ENDBRANCH 58 78
ENDBRANCH 57 61
ENDBRANCH 41 57
ENDBRANCH 40 44
ENDBRANCH 20 40
ENDBRANCH 19 23
ENDBRANCH 1 19
TORSDOF 22
ENDMDL
MODEL 29
REMARK VINA RESULT:       1.3      2.994      9.176
ROOT
ATOM      1  C1  IDS B   1     -28.068  54.808  10.8150  0.00  0.00     0.000 C
ATOM      2  C2  IDS B   1     -28.101  55.921  11.8290  0.00  0.00     0.000 C
ATOM      3  C3  IDS B   1     -27.091  57.072  11.6080  0.00  0.00     0.000 C
ATOM      4  C4  IDS B   1     -26.699  57.290  10.0990  0.00  0.00     0.000 C
ATOM      5  C5  IDS B   1     -26.797  55.990   9.2640  0.00  0.00     0.000 C
ATOM      6  O5  IDS B   1     -28.019  55.349   9.5110  0.00  0.00     0.000 O
ATOM      7   O  IDS B   1     -25.942  56.783  12.3980  0.00  0.00     0.000 O
ATOM      9  HD  IDS B   1     -25.719  57.304  11.7430  0.00  0.00     0.000 HD
ATOM      9   O  IDS B   1     -27.601  58.226   9.5530  0.00  0.00     0.000 O
ATOM     11  HD  IDS B   1     -27.378  58.747   8.8980  0.00  0.00     0.000 HD
ENDROOT
BRANCH 2 11
ATOM     11   O  IDS B   1     -29.360  56.501  11.8440  0.00  0.00     0.000 O
ATOM     12  @S  IDS B   1     -29.733  57.753  12.6620  0.00  0.00     0.000 S
ATOM     13   O  IDS B   1     -28.801  57.732  13.7710  0.00  0.00     0.000 OA
ATOM     14   O  IDS B   1     -29.535  58.895  11.7880  0.00  0.00     0.000 OA
ATOM     15   O  IDS B   1     -31.118  57.573  13.0490  0.00  0.00     0.000 OA
ENDBRANCH 2 11
BRANCH 5 16
ATOM     16 @CA  IDS B   1     -26.583  56.129   7.7590  0.00  0.00     0.000 C
ATOM     17   O  IDS B   1     -26.800  55.197   6.9890  0.00  0.00     0.000 OA
ATOM     18   O  IDS B   1     -26.197  57.192   7.2800  0.00  0.00     0.000 OA
ENDBRANCH 5 16
BRANCH 1 19
ATOM     19  O4  SGN B   2     -26.928  54.014  11.0740  0.00  0.00     0.000 O
BRANCH 19 23
ATOM     20  C1  SGN B   2     -26.503  50.134  12.3050  0.00  0.00     0.000 C
ATOM     21  C2  SGN B   2     -27.591  50.464  11.3070  0.00  0.00     0.000 C
ATOM     22  C3  SGN B   2     -27.227  51.704  10.5720  0.00  0.00     0.000 C
ATOM     23  C4  SGN B   2     -27.194  52.780  11.6340  0.00  0.00     0.000 C
ATOM     24  C5  SGN B   2     -26.050  52.421  12.5180  0.00  0.00     0.000 C
ATOM     25  O5  SGN B   2     -26.333  51.241  13.1780  0.00  0.00     0.000 O
ATOM     26   O  SGN B   2     -28.202  51.985   9.6300  0.00  0.00     0.000 O
ATOM     28  HD  SGN B   2     -28.863  52.297   9.1660  0.00  0.00     0.000 HD
BRANCH 21 30
ATOM     28   N  SGN B   2     -27.461  49.040  11.4100  0.00  0.00     0.000 N
ATOM     30  HD  SGN B   2     -27.103  48.885  10.6370  0.00  0.00     0.000 HD
ATOM     30 @NS  SGN B   2     -28.750  48.150  10.9780  0.00  0.00     0.000 S
ATOM     31   O  SGN B   2     -29.743  49.004  10.4180  0.00  0.00     0.000 OA
ATOM     32   O  SGN B   2     -28.233  47.262  10.0200  0.00  0.00     0.000 OA
ATOM     33   O  SGN B   2     -29.218  47.532  12.1610  0.00  0.00     0.000 OA
ENDBRANCH 21 30
BRANCH 24 34
ATOM     34   C  SGN B   2     -25.712  53.424  13.5590  0.00  0.00     0.000 C
ATOM     35   O  SGN B   2     -24.383  53.243  13.8960  0.00  0.00     0.000 O
ATOM     36  @S  SGN B   2     -23.599  54.213  14.7730  0.00  0.00     0.000 S
ATOM     37   O  SGN B   2     -23.773  53.698  16.1170  0.00  0.00     0.000 OA
ATOM     38   O  SGN B   2     -22.230  54.176  14.3130  0.00  0.00     0.000 OA
ATOM     39   O  SGN B   2     -24.219  55.512  14.5540  0.00  0.00     0.000 OA
ENDBRANCH 24 34
BRANCH 20 40
ATOM     40  O4  IDS B   3     -25.315  49.820  11.6460  0.00  0.00     0.000 O
BRANCH 40 44
ATOM     41  C1  IDS B   3     -22.495  47.733  11.6730  0.00  0.00     0.000 C
ATOM     42  C2  IDS B   3     -23.678  47.450  12.5970  0.00  0.00     0.000 C
ATOM     43  C3  IDS B   3     -24.225  48.666  13.3700  0.00  0.00     0.000 C
ATOM     44  C4  IDS B   3     -24.224  49.907  12.5010  0.00  0.00     0.000 C
ATOM     45  C5  IDS B   3     -22.927  50.042  11.6890  0.00  0.00     0.000 C
ATOM     46  O5  IDS B   3     -22.724  48.914  10.9180  0.00  0.00     0.000 O
ATOM     47   O  IDS B   3     -23.407  48.911  14.4950  0.00  0.00     0.000 O
ATOM     49  HD  IDS B   3     -24.137  48.927  14.0300  0.00  0.00     0.000 HD
BRANCH 42 49
ATOM     49   O  IDS B   3     -24.732  46.943  11.8280  0.00  0.00     0.000 O
ATOM     50   O  IDS B   3     -24.249  44.746  12.5250  0.00  0.00     0.000 OA
ATOM     51   O  IDS B   3     -26.509  45.411  12.2970  0.00  0.00     0.000 OA
ATOM     52   O  IDS B   3     -25.139  45.175  10.3900  0.00  0.00     0.000 OA
ATOM     53  @S  IDS B   3     -25.186  45.483  11.7600  0.00  0.00     0.000 S
ENDBRANCH 42 49
BRANCH 45 54
ATOM     54 @CA  IDS B   3     -22.831  51.288  10.8110  0.00  0.00     0.000 C
ATOM     55   O  IDS B   3     -22.912  51.224   9.6140  0.00  0.00     0.000 OA
ATOM     56   O  IDS B   3     -22.697  52.368  11.2850  0.00  0.00     0.000 OA
ENDBRANCH 45 54
BRANCH 41 57
ATOM     57  O4  SGN B   4     -21.329  47.820  12.4230  0.00  0.00     0.000 O
BRANCH 57 61
ATOM     58  C1  SGN B   4     -17.351  46.830  11.9830  0.00  0.00     0.000 C
ATOM     59  C2  SGN B   4     -18.079  47.209  10.7040  0.00  0.00     0.000 C
ATOM     60  C3  SGN B   4     -19.388  47.915  11.0430  0.00  0.00     0.000 C
ATOM     61  C4  SGN B   4     -20.257  47.055  11.9670  0.00  0.00     0.000 C
ATOM     62  C5  SGN B   4     -19.407  46.655  13.1700  0.00  0.00     0.000 C
ATOM     63  O5  SGN B   4     -18.210  46.017  12.7650  0.00  0.00     0.000 O
ATOM     64   O  SGN B   4     -20.101  48.151   9.8460  0.00  0.00     0.000 O
ATOM     66  HD  SGN B   4     -20.884  47.785   9.7870  0.00  0.00     0.000 HD
BRANCH 59 68
ATOM     66   N  SGN B   4     -17.351  46.727   9.5480  0.00  0.00     0.000 N
ATOM     68  HD  SGN B   4     -17.498  46.470  10.3610  0.00  0.00     0.000 HD
ATOM     68 @NS  SGN B   4     -15.936  47.435   9.1160  0.00  0.00     0.000 S
ATOM     69   O  SGN B   4     -16.050  48.845   9.3430  0.00  0.00     0.000 OA
ATOM     70   O  SGN B   4     -14.927  46.852   9.9530  0.00  0.00     0.000 OA
ATOM     71   O  SGN B   4     -15.784  47.108   7.7310  0.00  0.00     0.000 OA
ENDBRANCH 59 68
BRANCH 62 72
ATOM     72   C  SGN B   4     -20.121  45.690  14.1040  0.00  0.00     0.000 C
ATOM     73   O  SGN B   4     -20.184  46.340  15.3380  0.00  0.00     0.000 O
ATOM     74  @S  SGN B   4     -21.279  46.209  16.4110  0.00  0.00     0.000 S
ATOM     75   O  SGN B   4     -21.348  44.844  16.7800  0.00  0.00     0.000 OA
ATOM     76   O  SGN B   4     -20.821  47.039  17.4840  0.00  0.00     0.000 OA
ATOM     77   O  SGN B   4     -22.485  46.640  15.7890  0.00  0.00     0.000 OA
ENDBRANCH 62 72
BRANCH 58 78
ATOM     78  O4  IDS B   5     -16.939  47.993  12.6720  0.00  0.00     0.000 O
BRANCH 78 82
ATOM     79  C1  IDS B   5     -15.458  50.554  14.4730  0.00  0.00     0.000 C
ATOM     80  C2  IDS B   5     -15.105  50.376  13.0280  0.00  0.00     0.000 C
ATOM     81  C3  IDS B   5     -14.722  48.945  12.6590  0.00  0.00     0.000 C
ATOM     82  C4  IDS B   5     -15.658  47.916  13.2580  0.00  0.00     0.000 C
ATOM     83  C5  IDS B   5     -15.778  48.213  14.7190  0.00  0.00     0.000 C
ATOM     84  O5  IDS B   5     -16.316  49.510  14.8950  0.00  0.00     0.000 O
ATOM     85   O  IDS B   5     -13.434  48.700  13.1710  0.00  0.00     0.000 O
ATOM     87  HD  IDS B   5     -14.159  48.241  13.2920  0.00  0.00     0.000 HD
BRANCH 80 87
ATOM     87   O  IDS B   5     -16.205  50.702  12.2740  0.00  0.00     0.000 O
ATOM     88  @S  IDS B   5     -16.370  51.925  11.3680  0.00  0.00     0.000 S
ATOM     89   O  IDS B   5     -15.244  51.901  10.5070  0.00  0.00     0.000 OA
ATOM     90   O  IDS B   5     -17.614  51.740  10.7070  0.00  0.00     0.000 OA
ATOM     91   O  IDS B   5     -16.388  53.054  12.2310  0.00  0.00     0.000 OA
ENDBRANCH 80 87
BRANCH 83 92
ATOM     92 @CA  IDS B   5     -16.541  47.150  15.5000  0.00  0.00     0.000 C
ATOM     93   O  IDS B   5     -17.412  47.464  16.3160  0.00  0.00     0.000 OA
ATOM     94   O  IDS B   5     -16.297  45.949  15.3330  0.00  0.00     0.000 OA
ENDBRANCH 83 92
BRANCH 79 95
ATOM     95  O4  SGN B   6     -14.295  50.617  15.2300  0.00  0.00     0.000 O
BRANCH 95 99
ATOM     96  C1  SGN B   6     -13.355  51.011  19.2510  0.00  0.00     0.000 C
ATOM     97  C2  SGN B   6     -14.141  49.762  18.8700  0.00  0.00     0.000 C
ATOM     98  C3  SGN B   6     -13.898  49.532  17.3780  0.00  0.00     0.000 C
ATOM     99  C4  SGN B   6     -14.508  50.748  16.6240  0.00  0.00     0.000 C
ATOM    100  C5  SGN B   6     -13.754  52.010  17.1320  0.00  0.00     0.000 C
ATOM    101  O5  SGN B   6     -13.845  52.136  18.5480  0.00  0.00     0.000 O
BRANCH 97 104
ATOM    102   N  SGN B   6     -14.505  49.771  20.2900  0.00  0.00     0.000 N
ATOM    104  HD  SGN B   6     -13.856  49.441  20.7590  0.00  0.00     0.000 HD
ATOM    104 @NS  SGN B   6     -14.656  48.306  21.0540  0.00  0.00     0.000 S
ATOM    105   O  SGN B   6     -14.340  47.274  20.0910  0.00  0.00     0.000 OA
ATOM    106   O  SGN B   6     -13.731  48.319  22.1640  0.00  0.00     0.000 OA
ATOM    107   O  SGN B   6     -16.033  48.220  21.4840  0.00  0.00     0.000 OA
ENDBRANCH 97 104
BRANCH 100 108
ATOM    108   C  SGN B   6     -14.221  53.344  16.5620  0.00  0.00     0.000 C
ATOM    109   O  SGN B   6     -15.625  53.404  16.6030  0.00  0.00     0.000 O
ATOM    110  @S  SGN B   6     -16.509  54.604  16.1060  0.00  0.00     0.000 S
ATOM    111   O  SGN B   6     -15.898  55.068  14.8840  0.00  0.00     0.000 OA
ATOM    112   O  SGN B   6     -17.842  54.067  15.8820  0.00  0.00     0.000 OA
ATOM    113   O  SGN B   6     -16.462  55.589  17.1630  0.00  0.00     0.000 OA
ENDBRANCH 100 108
ENDBRANCH 95 99
ENDBRANCH 79 95
ENDBRANCH 78 82
ENDBRANCH 58 78
ENDBRANCH 57 61
ENDBRANCH 41 57
ENDBRANCH 40 44
ENDBRANCH 20 40
ENDBRANCH 19 23
ENDBRANCH 1 19
TORSDOF 22
ENDMDL
MODEL 30
REMARK VINA RESULT:       1.4      5.020     10.120
ROOT
ATOM      1  C1  IDS B   1     -17.272  52.132  14.6360  0.00  0.00     0.000 C
ATOM      2  C2  IDS B   1     -16.783  53.027  13.5280  0.00  0.00     0.000 C
ATOM      3  C3  IDS B   1     -17.160  54.524  13.6460  0.00  0.00     0.000 C
ATOM      4  C4  IDS B   1     -17.352  55.013  15.1300  0.00  0.00     0.000 C
ATOM      5  C5  IDS B   1     -17.815  53.879  16.0770  0.00  0.00     0.000 C
ATOM      6  O5  IDS B   1     -17.021  52.738  15.8880  0.00  0.00     0.000 O
ATOM      7   O  IDS B   1     -18.347  54.722  12.8850  0.00  0.00     0.000 O
ATOM      9  HD  IDS B   1     -18.286  55.337  13.4910  0.00  0.00     0.000 HD
ATOM      9   O  IDS B   1     -16.105  55.482  15.5920  0.00  0.00     0.000 O
ATOM     11  HD  IDS B   1     -16.044  56.097  16.1990  0.00  0.00     0.000 HD
ENDROOT
BRANCH 2 11
ATOM     11   O  IDS B   1     -15.400  52.975  13.4620  0.00  0.00     0.000 O
ATOM     12  @S  IDS B   1     -14.547  53.743  12.4340  0.00  0.00     0.000 S
ATOM     13   O  IDS B   1     -15.438  53.918  11.3060  0.00  0.00     0.000 OA
ATOM     14   O  IDS B   1     -14.180  55.003  13.0560  0.00  0.00     0.000 OA
ATOM     15   O  IDS B   1     -13.402  52.896  12.1590  0.00  0.00     0.000 OA
ENDBRANCH 2 11
BRANCH 5 16
ATOM     16 @CA  IDS B   1     -17.884  54.217  17.5630  0.00  0.00     0.000 C
ATOM     17   O  IDS B   1     -18.479  53.496  18.3610  0.00  0.00     0.000 OA
ATOM     18   O  IDS B   1     -17.329  55.222  18.0000  0.00  0.00     0.000 OA
ENDBRANCH 5 16
BRANCH 1 19
ATOM     19  O4  SGN B   2     -18.656  51.920  14.4480  0.00  0.00     0.000 O
BRANCH 19 23
ATOM     20  C1  SGN B   2     -21.046  48.609  14.7380  0.00  0.00     0.000 C
ATOM     21  C2  SGN B   2     -20.424  49.169  15.9980  0.00  0.00     0.000 C
ATOM     22  C3  SGN B   2     -20.116  50.609  15.8000  0.00  0.00     0.000 C
ATOM     23  C4  SGN B   2     -19.085  50.630  14.6950  0.00  0.00     0.000 C
ATOM     24  C5  SGN B   2     -19.802  50.145  13.4820  0.00  0.00     0.000 C
ATOM     25  O5  SGN B   2     -20.151  48.819  13.6550  0.00  0.00     0.000 O
ATOM     26   O  SGN B   2     -19.585  51.133  16.9660  0.00  0.00     0.000 O
ATOM     28  HD  SGN B   2     -19.087  51.452  17.5980  0.00  0.00     0.000 HD
BRANCH 21 30
ATOM     28   N  SGN B   2     -20.404  47.810  16.4550  0.00  0.00     0.000 N
ATOM     30  HD  SGN B   2     -21.059  47.503  15.9800  0.00  0.00     0.000 HD
ATOM     30 @NS  SGN B   2     -21.240  47.474  17.8070  0.00  0.00     0.000 S
ATOM     31   O  SGN B   2     -21.980  48.627  18.1980  0.00  0.00     0.000 OA
ATOM     32   O  SGN B   2     -22.089  46.424  17.4180  0.00  0.00     0.000 OA
ATOM     33   O  SGN B   2     -20.283  47.125  18.7880  0.00  0.00     0.000 OA
ENDBRANCH 21 30
BRANCH 24 34
ATOM     34   C  SGN B   2     -19.034  50.225  12.2150  0.00  0.00     0.000 C
ATOM     35   O  SGN B   2     -19.411  51.390  11.5710  0.00  0.00     0.000 O
ATOM     36  @S  SGN B   2     -18.695  51.940  10.3430  0.00  0.00     0.000 S
ATOM     37   O  SGN B   2     -19.410  51.360   9.2240  0.00  0.00     0.000 OA
ATOM     38   O  SGN B   2     -18.799  53.379  10.4130  0.00  0.00     0.000 OA
ATOM     39   O  SGN B   2     -17.318  51.481  10.4660  0.00  0.00     0.000 OA
ENDBRANCH 24 34
BRANCH 20 40
ATOM     40  O4  IDS B   3     -22.283  49.205  14.4970  0.00  0.00     0.000 O
BRANCH 40 44
ATOM     41  C1  IDS B   3     -25.621  49.671  13.5270  0.00  0.00     0.000 C
ATOM     42  C2  IDS B   3     -25.187  49.942  14.9660  0.00  0.00     0.000 C
ATOM     43  C3  IDS B   3     -24.312  48.852  15.6150  0.00  0.00     0.000 C
ATOM     44  C4  IDS B   3     -23.319  48.289  14.6170  0.00  0.00     0.000 C
ATOM     45  C5  IDS B   3     -23.960  48.035  13.2440  0.00  0.00     0.000 C
ATOM     46  O5  IDS B   3     -24.527  49.196  12.7570  0.00  0.00     0.000 O
ATOM     47   O  IDS B   3     -25.136  47.796  16.0630  0.00  0.00     0.000 O
ATOM     49  HD  IDS B   3     -24.433  48.302  16.0540  0.00  0.00     0.000 HD
BRANCH 42 49
ATOM     49   O  IDS B   3     -24.450  51.131  14.9920  0.00  0.00     0.000 O
ATOM     50   O  IDS B   3     -25.560  51.836  16.9460  0.00  0.00     0.000 OA
ATOM     51   O  IDS B   3     -23.244  52.271  16.7160  0.00  0.00     0.000 OA
ATOM     52   O  IDS B   3     -24.809  53.390  15.3490  0.00  0.00     0.000 OA
ATOM     53  @S  IDS B   3     -24.517  52.219  16.0670  0.00  0.00     0.000 S
ENDBRANCH 42 49
BRANCH 45 54
ATOM     54 @CA  IDS B   3     -23.032  47.434  12.1910  0.00  0.00     0.000 C
ATOM     55   O  IDS B   3     -22.665  46.292  12.2510  0.00  0.00     0.000 OA
ATOM     56   O  IDS B   3     -22.660  48.071  11.2610  0.00  0.00     0.000 OA
ENDBRANCH 45 54
BRANCH 41 57
ATOM     57  O4  SGN B   4     -26.682  48.773  13.5220  0.00  0.00     0.000 O
BRANCH 57 61
ATOM     58  C1  SGN B   4     -30.066  49.097  11.1890  0.00  0.00     0.000 C
ATOM     59  C2  SGN B   4     -29.490  47.697  11.3190  0.00  0.00     0.000 C
ATOM     60  C3  SGN B   4     -28.511  47.647  12.4890  0.00  0.00     0.000 C
ATOM     61  C4  SGN B   4     -27.416  48.709  12.3380  0.00  0.00     0.000 C
ATOM     62  C5  SGN B   4     -28.098  50.057  12.1230  0.00  0.00     0.000 C
ATOM     63  O5  SGN B   4     -28.994  50.011  11.0280  0.00  0.00     0.000 O
ATOM     64   O  SGN B   4     -27.900  46.373  12.5170  0.00  0.00     0.000 O
ATOM     66  HD  SGN B   4     -27.038  46.357  12.4330  0.00  0.00     0.000 HD
BRANCH 59 68
ATOM     66   N  SGN B   4     -29.998  46.883  10.2340  0.00  0.00     0.000 N
ATOM     68  HD  SGN B   4     -29.802  47.715  10.3700  0.00  0.00     0.000 HD
ATOM     68 @NS  SGN B   4     -31.550  46.353  10.2630  0.00  0.00     0.000 S
ATOM     69   O  SGN B   4     -31.886  46.018  11.6160  0.00  0.00     0.000 OA
ATOM     70   O  SGN B   4     -32.351  47.440   9.7800  0.00  0.00     0.000 OA
ATOM     71   O  SGN B   4     -31.552  45.215   9.3950  0.00  0.00     0.000 OA
ENDBRANCH 59 68
BRANCH 62 72
ATOM     72   C  SGN B   4     -27.112  51.179  11.8330  0.00  0.00     0.000 C
ATOM     73   O  SGN B   4     -26.792  51.055  10.4790  0.00  0.00     0.000 O
ATOM     74  @S  SGN B   4     -26.424  52.182   9.4980  0.00  0.00     0.000 S
ATOM     75   O  SGN B   4     -25.288  52.845  10.0220  0.00  0.00     0.000 OA
ATOM     76   O  SGN B   4     -26.137  51.500   8.2720  0.00  0.00     0.000 OA
ATOM     77   O  SGN B   4     -27.556  53.045   9.4560  0.00  0.00     0.000 OA
ENDBRANCH 62 72
BRANCH 58 78
ATOM     78  O4  IDS B   5     -30.866  49.401  12.3140  0.00  0.00     0.000 O
BRANCH 78 82
ATOM     79  C1  IDS B   5     -33.066  50.816  14.5840  0.00  0.00     0.000 C
ATOM     80  C2  IDS B   5     -33.108  49.337  14.3470  0.00  0.00     0.000 C
ATOM     81  C3  IDS B   5     -33.170  48.950  12.8720  0.00  0.00     0.000 C
ATOM     82  C4  IDS B   5     -32.202  49.744  12.0180  0.00  0.00     0.000 C
ATOM     83  C5  IDS B   5     -32.408  51.192  12.3320  0.00  0.00     0.000 C
ATOM     84  O5  IDS B   5     -32.138  51.422  13.7020  0.00  0.00     0.000 O
ATOM     85   O  IDS B   5     -34.471  49.225  12.4100  0.00  0.00     0.000 O
ATOM     87  HD  IDS B   5     -33.715  49.491  12.0820  0.00  0.00     0.000 HD
BRANCH 80 87
ATOM     87   O  IDS B   5     -31.958  48.787  14.8570  0.00  0.00     0.000 O
ATOM     88  @S  IDS B   5     -31.828  47.927  16.1170  0.00  0.00     0.000 S
ATOM     89   O  IDS B   5     -32.772  46.883  15.9490  0.00  0.00     0.000 OA
ATOM     90   O  IDS B   5     -30.475  47.494  16.1400  0.00  0.00     0.000 OA
ATOM     91   O  IDS B   5     -32.132  48.784  17.2100  0.00  0.00     0.000 OA
ENDBRANCH 80 87
BRANCH 83 92
ATOM     92 @CA  IDS B   5     -31.636  52.134  11.4160  0.00  0.00     0.000 C
ATOM     93   O  IDS B   5     -30.849  52.964  11.8770  0.00  0.00     0.000 OA
ATOM     94   O  IDS B   5     -31.790  52.086  10.1900  0.00  0.00     0.000 OA
ENDBRANCH 83 92
BRANCH 79 95
ATOM     95  O4  SGN B   6     -34.343  51.344  14.4480  0.00  0.00     0.000 O
BRANCH 95 99
ATOM     96  C1  SGN B   6     -36.217  54.891  15.5040  0.00  0.00     0.000 C
ATOM     97  C2  SGN B   6     -34.845  55.030  14.8540  0.00  0.00     0.000 C
ATOM     98  C3  SGN B   6     -34.602  53.740  14.0700  0.00  0.00     0.000 C
ATOM     99  C4  SGN B   6     -34.540  52.581  15.1070  0.00  0.00     0.000 C
ATOM    100  C5  SGN B   6     -35.920  52.555  15.8250  0.00  0.00     0.000 C
ATOM    101  O5  SGN B   6     -36.221  53.814  16.4200  0.00  0.00     0.000 O
BRANCH 97 104
ATOM    102   N  SGN B   6     -34.768  56.229  14.0150  0.00  0.00     0.000 N
ATOM    104  HD  SGN B   6     -33.939  56.458  13.9100  0.00  0.00     0.000 HD
ATOM    104 @NS  SGN B   6     -34.164  57.612  14.7050  0.00  0.00     0.000 S
ATOM    105   O  SGN B   6     -33.791  57.297  16.0670  0.00  0.00     0.000 OA
ATOM    106   O  SGN B   6     -33.029  58.014  13.9070  0.00  0.00     0.000 OA
ATOM    107   O  SGN B   6     -35.238  58.580  14.6660  0.00  0.00     0.000 OA
ENDBRANCH 97 104
BRANCH 100 108
ATOM    108   C  SGN B   6     -36.079  51.519  16.9320  0.00  0.00     0.000 C
ATOM    109   O  SGN B   6     -36.399  50.274  16.3630  0.00  0.00     0.000 O
ATOM    110  @S  SGN B   6     -36.653  48.940  17.1550  0.00  0.00     0.000 S
ATOM    111   O  SGN B   6     -37.416  49.310  18.3230  0.00  0.00     0.000 OA
ATOM    112   O  SGN B   6     -37.405  48.070  16.2630  0.00  0.00     0.000 OA
ATOM    113   O  SGN B   6     -35.343  48.423  17.4820  0.00  0.00     0.000 OA
ENDBRANCH 100 108
ENDBRANCH 95 99
ENDBRANCH 79 95
ENDBRANCH 78 82
ENDBRANCH 58 78
ENDBRANCH 57 61
ENDBRANCH 41 57
ENDBRANCH 40 44
ENDBRANCH 20 40
ENDBRANCH 19 23
ENDBRANCH 1 19
TORSDOF 22
ENDMDL
MODEL 31
REMARK VINA RESULT:       1.5      3.291     11.026
ROOT
ATOM      1  C1  IDS B   1     -16.763  49.490  11.6620  0.00  0.00     0.000 C
ATOM      2  C2  IDS B   1     -16.771  48.483  10.5420  0.00  0.00     0.000 C
ATOM      3  C3  IDS B   1     -16.371  49.016   9.1450  0.00  0.00     0.000 C
ATOM      4  C4  IDS B   1     -15.387  50.244   9.1950  0.00  0.00     0.000 C
ATOM      5  C5  IDS B   1     -15.555  51.091  10.4800  0.00  0.00     0.000 C
ATOM      6  O5  IDS B   1     -15.577  50.257  11.6070  0.00  0.00     0.000 O
ATOM      7   O  IDS B   1     -17.573  49.351   8.4600  0.00  0.00     0.000 O
ATOM      9  HD  IDS B   1     -16.915  49.805   8.1280  0.00  0.00     0.000 HD
ATOM      9   O  IDS B   1     -14.071  49.741   9.1740  0.00  0.00     0.000 O
ATOM     11  HD  IDS B   1     -13.412  50.196   8.8430  0.00  0.00     0.000 HD
ENDROOT
BRANCH 2 11
ATOM     11   O  IDS B   1     -15.893  47.452  10.8350  0.00  0.00     0.000 O
ATOM     12  @S  IDS B   1     -16.013  46.020  10.2790  0.00  0.00     0.000 S
ATOM     13   O  IDS B   1     -17.429  45.870  10.0100  0.00  0.00     0.000 OA
ATOM     14   O  IDS B   1     -15.209  45.973   9.0710  0.00  0.00     0.000 OA
ATOM     15   O  IDS B   1     -15.513  45.147  11.3220  0.00  0.00     0.000 OA
ENDBRANCH 2 11
BRANCH 5 16
ATOM     16 @CA  IDS B   1     -14.546  52.216  10.6910  0.00  0.00     0.000 C
ATOM     17   O  IDS B   1     -14.522  52.874  11.7290  0.00  0.00     0.000 OA
ATOM     18   O  IDS B   1     -13.717  52.481   9.8240  0.00  0.00     0.000 OA
ENDBRANCH 5 16
BRANCH 1 19
ATOM     19  O4  SGN B   2     -17.902  50.312  11.5190  0.00  0.00     0.000 O
BRANCH 19 23
ATOM     20  C1  SGN B   2     -20.412  52.022  14.2640  0.00  0.00     0.000 C
ATOM     21  C2  SGN B   2     -19.131  52.741  13.9040  0.00  0.00     0.000 C
ATOM     22  C3  SGN B   2     -18.686  52.311  12.5530  0.00  0.00     0.000 C
ATOM     23  C4  SGN B   2     -18.393  50.835  12.7000  0.00  0.00     0.000 C
ATOM     24  C5  SGN B   2     -19.714  50.200  12.9690  0.00  0.00     0.000 C
ATOM     25  O5  SGN B   2     -20.183  50.621  14.1990  0.00  0.00     0.000 O
ATOM     26   O  SGN B   2     -17.537  52.999  12.2040  0.00  0.00     0.000 O
ATOM     28  HD  SGN B   2     -16.731  53.262  12.0250  0.00  0.00     0.000 HD
BRANCH 21 30
ATOM     28   N  SGN B   2     -19.951  53.579  14.7300  0.00  0.00     0.000 N
ATOM     30  HD  SGN B   2     -20.244  54.118  14.1190  0.00  0.00     0.000 HD
ATOM     30 @NS  SGN B   2     -19.220  54.829  15.4670  0.00  0.00     0.000 S
ATOM     31   O  SGN B   2     -17.878  54.929  15.0010  0.00  0.00     0.000 OA
ATOM     32   O  SGN B   2     -19.987  55.938  15.0740  0.00  0.00     0.000 OA
ATOM     33   O  SGN B   2     -19.259  54.548  16.8530  0.00  0.00     0.000 OA
ENDBRANCH 21 30
BRANCH 24 34
ATOM     34   C  SGN B   2     -19.712  48.716  12.9970  0.00  0.00     0.000 C
ATOM     35   O  SGN B   2     -20.985  48.291  12.6640  0.00  0.00     0.000 O
ATOM     36  @S  SGN B   2     -21.336  46.836  12.3740  0.00  0.00     0.000 S
ATOM     37   O  SGN B   2     -21.742  46.305  13.6600  0.00  0.00     0.000 OA
ATOM     38   O  SGN B   2     -22.397  46.853  11.3940  0.00  0.00     0.000 OA
ATOM     39   O  SGN B   2     -20.112  46.245  11.8510  0.00  0.00     0.000 OA
ENDBRANCH 24 34
BRANCH 20 40
ATOM     40  O4  IDS B   3     -21.445  52.407  13.4110  0.00  0.00     0.000 O
BRANCH 40 44
ATOM     41  C1  IDS B   3     -24.845  53.270  13.3650  0.00  0.00     0.000 C
ATOM     42  C2  IDS B   3     -24.108  53.092  14.6910  0.00  0.00     0.000 C
ATOM     43  C3  IDS B   3     -23.238  51.826  14.8050  0.00  0.00     0.000 C
ATOM     44  C4  IDS B   3     -22.525  51.538  13.4990  0.00  0.00     0.000 C
ATOM     45  C5  IDS B   3     -23.448  51.721  12.2840  0.00  0.00     0.000 C
ATOM     46  O5  IDS B   3     -23.980  52.996  12.2730  0.00  0.00     0.000 O
ATOM     47   O  IDS B   3     -24.059  50.719  15.1140  0.00  0.00     0.000 O
ATOM     49  HD  IDS B   3     -23.324  51.177  15.0910  0.00  0.00     0.000 HD
BRANCH 42 49
ATOM     49   O  IDS B   3     -23.264  54.191  14.8810  0.00  0.00     0.000 O
ATOM     50   O  IDS B   3     -24.980  55.386  15.9650  0.00  0.00     0.000 OA
ATOM     51   O  IDS B   3     -22.764  55.560  16.7790  0.00  0.00     0.000 OA
ATOM     52   O  IDS B   3     -23.344  56.497  14.6920  0.00  0.00     0.000 OA
ATOM     53  @S  IDS B   3     -23.608  55.483  15.6280  0.00  0.00     0.000 S
ENDBRANCH 42 49
BRANCH 45 54
ATOM     54 @CA  IDS B   3     -22.814  51.416  10.9290  0.00  0.00     0.000 C
ATOM     55   O  IDS B   3     -22.771  52.238  10.0540  0.00  0.00     0.000 OA
ATOM     56   O  IDS B   3     -22.322  50.361  10.7020  0.00  0.00     0.000 OA
ENDBRANCH 45 54
BRANCH 41 57
ATOM     57  O4  SGN B   4     -25.971  52.456  13.3450  0.00  0.00     0.000 O
BRANCH 57 61
ATOM     58  C1  SGN B   4     -28.086  55.196  11.1060  0.00  0.00     0.000 C
ATOM     59  C2  SGN B   4     -28.401  55.180  12.5920  0.00  0.00     0.000 C
ATOM     60  C3  SGN B   4     -27.306  54.430  13.3450  0.00  0.00     0.000 C
ATOM     61  C4  SGN B   4     -27.115  53.018  12.7810  0.00  0.00     0.000 C
ATOM     62  C5  SGN B   4     -26.898  53.141  11.2750  0.00  0.00     0.000 C
ATOM     63  O5  SGN B   4     -27.952  53.857  10.6600  0.00  0.00     0.000 O
ATOM     64   O  SGN B   4     -27.679  54.325  14.7040  0.00  0.00     0.000 O
ATOM     66  HD  SGN B   4     -27.762  53.522  15.0190  0.00  0.00     0.000 HD
BRANCH 59 68
ATOM     66   N  SGN B   4     -29.698  55.820  12.5020  0.00  0.00     0.000 N
ATOM     68  HD  SGN B   4     -29.119  55.471  11.9610  0.00  0.00     0.000 HD
ATOM     68 @NS  SGN B   4     -29.827  57.444  12.6900  0.00  0.00     0.000 S
ATOM     69   O  SGN B   4     -28.905  57.853  13.7090  0.00  0.00     0.000 OA
ATOM     70   O  SGN B   4     -29.491  58.020  11.4210  0.00  0.00     0.000 OA
ATOM     71   O  SGN B   4     -31.193  57.650  13.0650  0.00  0.00     0.000 OA
ENDBRANCH 59 68
BRANCH 62 72
ATOM     72   C  SGN B   4     -26.821  51.792  10.5770  0.00  0.00     0.000 C
ATOM     73   O  SGN B   4     -27.630  51.910   9.4450  0.00  0.00     0.000 O
ATOM     74  @S  SGN B   4     -27.450  51.206   8.0880  0.00  0.00     0.000 S
ATOM     75   O  SGN B   4     -27.464  49.811   8.3310  0.00  0.00     0.000 OA
ATOM     76   O  SGN B   4     -28.579  51.634   7.3180  0.00  0.00     0.000 OA
ATOM     77   O  SGN B   4     -26.186  51.635   7.5920  0.00  0.00     0.000 OA
ENDBRANCH 62 72
BRANCH 58 78
ATOM     78  O4  IDS B   5     -26.924  55.962  10.8630  0.00  0.00     0.000 O
BRANCH 78 82
ATOM     79  C1  IDS B   5     -24.461  58.213   9.9340  0.00  0.00     0.000 C
ATOM     80  C2  IDS B   5     -25.696  58.718  10.6140  0.00  0.00     0.000 C
ATOM     81  C3  IDS B   5     -26.994  58.211   9.9910  0.00  0.00     0.000 C
ATOM     82  C4  IDS B   5     -26.953  56.729   9.6790  0.00  0.00     0.000 C
ATOM     83  C5  IDS B   5     -25.700  56.467   8.9040  0.00  0.00     0.000 C
ATOM     84  O5  IDS B   5     -24.577  56.823   9.6870  0.00  0.00     0.000 O
ATOM     85   O  IDS B   5     -27.186  58.898   8.7780  0.00  0.00     0.000 O
ATOM     87  HD  IDS B   5     -27.176  58.043   8.9180  0.00  0.00     0.000 HD
BRANCH 80 87
ATOM     87   O  IDS B   5     -25.679  58.282  11.9160  0.00  0.00     0.000 O
ATOM     88  @S  IDS B   5     -25.609  59.147  13.1760  0.00  0.00     0.000 S
ATOM     89   O  IDS B   5     -26.670  60.078  13.0440  0.00  0.00     0.000 OA
ATOM     90   O  IDS B   5     -25.758  58.243  14.2630  0.00  0.00     0.000 OA
ATOM     91   O  IDS B   5     -24.325  59.757  13.1620  0.00  0.00     0.000 OA
ENDBRANCH 80 87
BRANCH 83 92
ATOM     92 @CA  IDS B   5     -25.606  55.050   8.3530  0.00  0.00     0.000 C
ATOM     93   O  IDS B   5     -24.771  54.253   8.7880  0.00  0.00     0.000 OA
ATOM     94   O  IDS B   5     -26.365  54.673   7.4520  0.00  0.00     0.000 OA
ENDBRANCH 83 92
BRANCH 79 95
ATOM     95  O4  SGN B   6     -24.243  58.937   8.7690  0.00  0.00     0.000 O
BRANCH 95 99
ATOM     96  C1  SGN B   6     -21.181  61.295   7.2610  0.00  0.00     0.000 C
ATOM     97  C2  SGN B   6     -20.761  59.953   7.8480  0.00  0.00     0.000 C
ATOM     98  C3  SGN B   6     -22.000  59.057   7.8190  0.00  0.00     0.000 C
ATOM     99  C4  SGN B   6     -23.051  59.702   8.7670  0.00  0.00     0.000 C
ATOM    100  C5  SGN B   6     -23.361  61.114   8.1920  0.00  0.00     0.000 C
ATOM    101  O5  SGN B   6     -22.176  61.895   8.0670  0.00  0.00     0.000 O
BRANCH 97 104
ATOM    102   N  SGN B   6     -19.455  60.447   8.2940  0.00  0.00     0.000 N
ATOM    104  HD  SGN B   6     -19.019  60.767   7.6170  0.00  0.00     0.000 HD
ATOM    104 @NS  SGN B   6     -18.104  59.686   7.7040  0.00  0.00     0.000 S
ATOM    105   O  SGN B   6     -18.544  58.654   6.7910  0.00  0.00     0.000 OA
ATOM    106   O  SGN B   6     -17.312  60.697   7.0430  0.00  0.00     0.000 OA
ATOM    107   O  SGN B   6     -17.430  59.121   8.8520  0.00  0.00     0.000 OA
ENDBRANCH 97 104
BRANCH 100 108
ATOM    108   C  SGN B   6     -24.341  61.963   8.9920  0.00  0.00     0.000 C
ATOM    109   O  SGN B   6     -25.622  61.862   8.4200  0.00  0.00     0.000 O
ATOM    110  @S  SGN B   6     -26.918  62.585   8.9350  0.00  0.00     0.000 S
ATOM    111   O  SGN B   6     -26.506  63.915   9.3170  0.00  0.00     0.000 OA
ATOM    112   O  SGN B   6     -27.850  62.601   7.8180  0.00  0.00     0.000 OA
ATOM    113   O  SGN B   6     -27.386  61.801  10.0550  0.00  0.00     0.000 OA
ENDBRANCH 100 108
ENDBRANCH 95 99
ENDBRANCH 79 95
ENDBRANCH 78 82
ENDBRANCH 58 78
ENDBRANCH 57 61
ENDBRANCH 41 57
ENDBRANCH 40 44
ENDBRANCH 20 40
ENDBRANCH 19 23
ENDBRANCH 1 19
TORSDOF 22
ENDMDL
MODEL 32
REMARK VINA RESULT:       1.5      4.552      9.398
ROOT
ATOM      1  C1  IDS B   1     -16.120  52.100  13.6280  0.00  0.00     0.000 C
ATOM      2  C2  IDS B   1     -15.708  52.742  12.3290  0.00  0.00     0.000 C
ATOM      3  C3  IDS B   1     -15.858  54.280  12.2520  0.00  0.00     0.000 C
ATOM      4  C4  IDS B   1     -15.733  54.999  13.6480  0.00  0.00     0.000 C
ATOM      5  C5  IDS B   1     -16.178  54.097  14.8250  0.00  0.00     0.000 C
ATOM      6  O5  IDS B   1     -15.585  52.831  14.7130  0.00  0.00     0.000 O
ATOM      7   O  IDS B   1     -17.118  54.552  11.6480  0.00  0.00     0.000 O
ATOM      9  HD  IDS B   1     -16.876  55.230  12.1300  0.00  0.00     0.000 HD
ATOM      9   O  IDS B   1     -14.376  55.327  13.8410  0.00  0.00     0.000 O
ATOM     11  HD  IDS B   1     -14.134  56.005  14.3230  0.00  0.00     0.000 HD
ENDROOT
BRANCH 2 11
ATOM     11   O  IDS B   1     -14.374  52.465  12.0740  0.00  0.00     0.000 O
ATOM     12  @S  IDS B   1     -13.777  52.273  10.6670  0.00  0.00     0.000 S
ATOM     13   O  IDS B   1     -14.900  51.815   9.8730  0.00  0.00     0.000 OA
ATOM     14   O  IDS B   1     -13.288  53.572  10.2420  0.00  0.00     0.000 OA
ATOM     15   O  IDS B   1     -12.719  51.294  10.8160  0.00  0.00     0.000 OA
ENDBRANCH 2 11
BRANCH 5 16
ATOM     16 @CA  IDS B   1     -15.953  54.649  16.2290  0.00  0.00     0.000 C
ATOM     17   O  IDS B   1     -16.836  54.617  17.0840  0.00  0.00     0.000 OA
ATOM     18   O  IDS B   1     -14.868  55.131  16.5440  0.00  0.00     0.000 OA
ENDBRANCH 5 16
BRANCH 1 19
ATOM     19  O4  SGN B   2     -17.531  52.084  13.6790  0.00  0.00     0.000 O
BRANCH 19 23
ATOM     20  C1  SGN B   2     -20.260  49.271  14.8620  0.00  0.00     0.000 C
ATOM     21  C2  SGN B   2     -19.317  49.848  15.8950  0.00  0.00     0.000 C
ATOM     22  C3  SGN B   2     -18.854  51.187  15.4470  0.00  0.00     0.000 C
ATOM     23  C4  SGN B   2     -18.081  50.917  14.1760  0.00  0.00     0.000 C
ATOM     24  C5  SGN B   2     -19.095  50.435  13.1980  0.00  0.00     0.000 C
ATOM     25  O5  SGN B   2     -19.588  49.212  13.6120  0.00  0.00     0.000 O
ATOM     26   O  SGN B   2     -18.024  51.735  16.4100  0.00  0.00     0.000 O
ATOM     28  HD  SGN B   2     -17.365  52.031  16.8880  0.00  0.00     0.000 HD
BRANCH 21 30
ATOM     28   N  SGN B   2     -19.685  49.922  17.2790  0.00  0.00     0.000 N
ATOM     30  HD  SGN B   2     -18.891  49.937  17.6250  0.00  0.00     0.000 HD
ATOM     30 @NS  SGN B   2     -19.977  48.516  18.0400  0.00  0.00     0.000 S
ATOM     31   O  SGN B   2     -19.648  47.436  17.1720  0.00  0.00     0.000 OA
ATOM     32   O  SGN B   2     -19.124  48.560  19.1550  0.00  0.00     0.000 OA
ATOM     33   O  SGN B   2     -21.356  48.516  18.3540  0.00  0.00     0.000 OA
ENDBRANCH 21 30
BRANCH 24 34
ATOM     34   C  SGN B   2     -18.602  50.250  11.8100  0.00  0.00     0.000 C
ATOM     35   O  SGN B   2     -19.707  50.173  10.9810  0.00  0.00     0.000 O
ATOM     36  @S  SGN B   2     -19.619  50.198   9.4600  0.00  0.00     0.000 S
ATOM     37   O  SGN B   2     -19.526  48.800   9.0850  0.00  0.00     0.000 OA
ATOM     38   O  SGN B   2     -20.820  50.845   8.9850  0.00  0.00     0.000 OA
ATOM     39   O  SGN B   2     -18.421  50.969   9.1590  0.00  0.00     0.000 OA
ENDBRANCH 24 34
BRANCH 20 40
ATOM     40  O4  IDS B   3     -21.421  50.038  14.7780  0.00  0.00     0.000 O
BRANCH 40 44
ATOM     41  C1  IDS B   3     -24.738  50.751  13.8870  0.00  0.00     0.000 C
ATOM     42  C2  IDS B   3     -24.186  51.197  15.2390  0.00  0.00     0.000 C
ATOM     43  C3  IDS B   3     -23.403  50.127  16.0250  0.00  0.00     0.000 C
ATOM     44  C4  IDS B   3     -22.547  49.290  15.0960  0.00  0.00     0.000 C
ATOM     45  C5  IDS B   3     -23.298  48.897  13.8150  0.00  0.00     0.000 C
ATOM     46  O5  IDS B   3     -23.757  50.024  13.1620  0.00  0.00     0.000 O
ATOM     47   O  IDS B   3     -24.314  49.269  16.6810  0.00  0.00     0.000 O
ATOM     49  HD  IDS B   3     -23.559  49.675  16.5560  0.00  0.00     0.000 HD
BRANCH 42 49
ATOM     49   O  IDS B   3     -23.316  52.273  15.0310  0.00  0.00     0.000 O
ATOM     50   O  IDS B   3     -24.606  53.653  16.4390  0.00  0.00     0.000 OA
ATOM     51   O  IDS B   3     -22.246  53.821  16.5100  0.00  0.00     0.000 OA
ATOM     52   O  IDS B   3     -23.435  54.546  14.6040  0.00  0.00     0.000 OA
ATOM     53  @S  IDS B   3     -23.404  53.653  15.6890  0.00  0.00     0.000 S
ENDBRANCH 42 49
BRANCH 45 54
ATOM     54 @CA  IDS B   3     -22.514  48.021  12.8390  0.00  0.00     0.000 C
ATOM     55   O  IDS B   3     -22.115  46.932  13.1510  0.00  0.00     0.000 OA
ATOM     56   O  IDS B   3     -22.293  48.380  11.7300  0.00  0.00     0.000 OA
ENDBRANCH 45 54
BRANCH 41 57
ATOM     57  O4  SGN B   4     -25.893  50.003  14.0790  0.00  0.00     0.000 O
BRANCH 57 61
ATOM     58  C1  SGN B   4     -28.765  48.419  11.5810  0.00  0.00     0.000 C
ATOM     59  C2  SGN B   4     -27.865  47.408  12.2710  0.00  0.00     0.000 C
ATOM     60  C3  SGN B   4     -27.135  48.074  13.4340  0.00  0.00     0.000 C
ATOM     61  C4  SGN B   4     -26.359  49.309  12.9630  0.00  0.00     0.000 C
ATOM     62  C5  SGN B   4     -27.330  50.212  12.2070  0.00  0.00     0.000 C
ATOM     63  O5  SGN B   4     -27.969  49.512  11.1560  0.00  0.00     0.000 O
ATOM     64   O  SGN B   4     -26.218  47.150  13.9840  0.00  0.00     0.000 O
ATOM     66  HD  SGN B   4     -25.384  47.381  13.9700  0.00  0.00     0.000 HD
BRANCH 59 68
ATOM     66   N  SGN B   4     -27.906  46.124  11.6010  0.00  0.00     0.000 N
ATOM     68  HD  SGN B   4     -27.938  46.961  11.3800  0.00  0.00     0.000 HD
ATOM     68 @NS  SGN B   4     -29.262  45.204  11.6710  0.00  0.00     0.000 S
ATOM     69   O  SGN B   4     -29.827  45.336  12.9820  0.00  0.00     0.000 OA
ATOM     70   O  SGN B   4     -30.147  45.720  10.6680  0.00  0.00     0.000 OA
ATOM     71   O  SGN B   4     -28.804  43.876  11.3980  0.00  0.00     0.000 OA
ENDBRANCH 59 68
BRANCH 62 72
ATOM     72   C  SGN B   4     -26.648  51.418  11.5780  0.00  0.00     0.000 C
ATOM     73   O  SGN B   4     -26.603  51.150  10.2080  0.00  0.00     0.000 O
ATOM     74  @S  SGN B   4     -26.662  52.166   9.0540  0.00  0.00     0.000 S
ATOM     75   O  SGN B   4     -25.581  53.064   9.2260  0.00  0.00     0.000 OA
ATOM     76   O  SGN B   4     -26.520  51.365   7.8750  0.00  0.00     0.000 OA
ATOM     77   O  SGN B   4     -27.915  52.829   9.1830  0.00  0.00     0.000 OA
ENDBRANCH 62 72
BRANCH 58 78
ATOM     78  O4  IDS B   5     -29.805  48.819  12.4500  0.00  0.00     0.000 O
BRANCH 78 82
ATOM     79  C1  IDS B   5     -32.680  49.806  14.1110  0.00  0.00     0.000 C
ATOM     80  C2  IDS B   5     -32.377  48.345  13.9760  0.00  0.00     0.000 C
ATOM     81  C3  IDS B   5     -32.040  47.914  12.5510  0.00  0.00     0.000 C
ATOM     82  C4  IDS B   5     -31.087  48.868  11.8610  0.00  0.00     0.000 C
ATOM     83  C5  IDS B   5     -31.637  50.249  12.0220  0.00  0.00     0.000 C
ATOM     84  O5  IDS B   5     -31.722  50.568  13.3990  0.00  0.00     0.000 O
ATOM     85   O  IDS B   5     -33.238  47.899  11.8120  0.00  0.00     0.000 O
ATOM     87  HD  IDS B   5     -32.497  48.308  11.6290  0.00  0.00     0.000 HD
BRANCH 80 87
ATOM     87   O  IDS B   5     -31.279  48.060  14.7500  0.00  0.00     0.000 O
ATOM     88  @S  IDS B   5     -31.252  47.248  16.0470  0.00  0.00     0.000 S
ATOM     89   O  IDS B   5     -31.888  46.021  15.7260  0.00  0.00     0.000 OA
ATOM     90   O  IDS B   5     -29.878  47.122  16.3850  0.00  0.00     0.000 OA
ATOM     91   O  IDS B   5     -31.970  48.014  17.0050  0.00  0.00     0.000 OA
ENDBRANCH 80 87
BRANCH 83 92
ATOM     92 @CA  IDS B   5     -30.887  51.306  11.2200  0.00  0.00     0.000 C
ATOM     93   O  IDS B   5     -30.524  52.362  11.7450  0.00  0.00     0.000 OA
ATOM     94   O  IDS B   5     -30.632  51.125  10.0240  0.00  0.00     0.000 OA
ENDBRANCH 83 92
BRANCH 79 95
ATOM     95  O4  SGN B   6     -33.976  50.053  13.6760  0.00  0.00     0.000 O
BRANCH 95 99
ATOM     96  C1  SGN B   6     -36.292  53.465  13.2240  0.00  0.00     0.000 C
ATOM     97  C2  SGN B   6     -35.416  53.092  12.0340  0.00  0.00     0.000 C
ATOM     98  C3  SGN B   6     -35.109  51.600  12.1690  0.00  0.00     0.000 C
ATOM     99  C4  SGN B   6     -34.275  51.421  13.4700  0.00  0.00     0.000 C
ATOM    100  C5  SGN B   6     -35.167  51.923  14.6410  0.00  0.00     0.000 C
ATOM    101  O5  SGN B   6     -35.588  53.269  14.4350  0.00  0.00     0.000 O
BRANCH 97 104
ATOM    102   N  SGN B   6     -36.190  54.226  11.5220  0.00  0.00     0.000 N
ATOM    104  HD  SGN B   6     -36.569  54.007  10.7750  0.00  0.00     0.000 HD
ATOM    104 @NS  SGN B   6     -35.709  54.899  10.0840  0.00  0.00     0.000 S
ATOM    105   O  SGN B   6     -34.573  54.142   9.6030  0.00  0.00     0.000 OA
ATOM    106   O  SGN B   6     -36.839  54.817   9.1880  0.00  0.00     0.000 OA
ATOM    107   O  SGN B   6     -35.340  56.264  10.3850  0.00  0.00     0.000 OA
ENDBRANCH 97 104
BRANCH 100 108
ATOM    108   C  SGN B   6     -34.534  51.890  16.0270  0.00  0.00     0.000 C
ATOM    109   O  SGN B   6     -34.414  53.203  16.5170  0.00  0.00     0.000 O
ATOM    110  @S  SGN B   6     -33.807  53.614  17.9080  0.00  0.00     0.000 S
ATOM    111   O  SGN B   6     -32.658  52.764  18.1050  0.00  0.00     0.000 OA
ATOM    112   O  SGN B   6     -33.439  55.016  17.7970  0.00  0.00     0.000 OA
ATOM    113   O  SGN B   6     -34.852  53.375  18.8770  0.00  0.00     0.000 OA
ENDBRANCH 100 108
ENDBRANCH 95 99
ENDBRANCH 79 95
ENDBRANCH 78 82
ENDBRANCH 58 78
ENDBRANCH 57 61
ENDBRANCH 41 57
ENDBRANCH 40 44
ENDBRANCH 20 40
ENDBRANCH 19 23
ENDBRANCH 1 19
TORSDOF 22
ENDMDL
MODEL 33
REMARK VINA RESULT:       1.5      2.610      8.221
ROOT
ATOM      1  C1  IDS B   1     -28.022  51.500  11.4670  0.00  0.00     0.000 C
ATOM      2  C2  IDS B   1     -28.459  52.864  11.9320  0.00  0.00     0.000 C
ATOM      3  C3  IDS B   1     -27.902  54.066  11.1310  0.00  0.00     0.000 C
ATOM      4  C4  IDS B   1     -27.577  53.728   9.6280  0.00  0.00     0.000 C
ATOM      5  C5  IDS B   1     -27.202  52.241   9.4180  0.00  0.00     0.000 C
ATOM      6  O5  IDS B   1     -28.134  51.414  10.0610  0.00  0.00     0.000 O
ATOM      7   O  IDS B   1     -26.741  54.528  11.8140  0.00  0.00     0.000 O
ATOM      9  HD  IDS B   1     -26.697  54.758  10.9810  0.00  0.00     0.000 HD
ATOM      9   O  IDS B   1     -28.733  53.997   8.8680  0.00  0.00     0.000 O
ATOM     11  HD  IDS B   1     -28.689  54.227   8.0340  0.00  0.00     0.000 HD
ENDROOT
BRANCH 2 11
ATOM     11   O  IDS B   1     -29.840  52.958  11.8700  0.00  0.00     0.000 O
ATOM     12  @S  IDS B   1     -30.675  54.021  12.6100  0.00  0.00     0.000 S
ATOM     13   O  IDS B   1     -29.857  54.370  13.7540  0.00  0.00     0.000 OA
ATOM     14   O  IDS B   1     -30.849  55.130  11.6890  0.00  0.00     0.000 OA
ATOM     15   O  IDS B   1     -31.926  53.372  12.9530  0.00  0.00     0.000 OA
ENDBRANCH 2 11
BRANCH 5 16
ATOM     16 @CA  IDS B   1     -27.016  51.782   7.9750  0.00  0.00     0.000 C
ATOM     17   O  IDS B   1     -26.729  52.572   7.0790  0.00  0.00     0.000 OA
ATOM     18   O  IDS B   1     -27.137  50.596   7.6770  0.00  0.00     0.000 OA
ENDBRANCH 5 16
BRANCH 1 19
ATOM     19  O4  SGN B   2     -26.685  51.305  11.8780  0.00  0.00     0.000 O
BRANCH 19 23
ATOM     20  C1  SGN B   2     -24.700  48.124  13.5210  0.00  0.00     0.000 C
ATOM     21  C2  SGN B   2     -25.471  47.914  12.2370  0.00  0.00     0.000 C
ATOM     22  C3  SGN B   2     -25.605  49.211  11.5230  0.00  0.00     0.000 C
ATOM     23  C4  SGN B   2     -26.426  50.075  12.4520  0.00  0.00     0.000 C
ATOM     24  C5  SGN B   2     -25.562  50.297  13.6450  0.00  0.00     0.000 C
ATOM     25  O5  SGN B   2     -25.373  49.099  14.3050  0.00  0.00     0.000 O
ATOM     26   O  SGN B   2     -26.275  49.013  10.3280  0.00  0.00     0.000 O
ATOM     28  HD  SGN B   2     -26.841  48.971   9.6750  0.00  0.00     0.000 HD
BRANCH 21 30
ATOM     28   N  SGN B   2     -25.329  46.615  12.8270  0.00  0.00     0.000 N
ATOM     30  HD  SGN B   2     -24.474  46.628  12.9650  0.00  0.00     0.000 HD
ATOM     30 @NS  SGN B   2     -25.136  45.362  11.8110  0.00  0.00     0.000 S
ATOM     31   O  SGN B   2     -24.993  45.853  10.4820  0.00  0.00     0.000 OA
ATOM     32   O  SGN B   2     -23.956  44.748  12.2640  0.00  0.00     0.000 OA
ATOM     33   O  SGN B   2     -26.299  44.567  11.9390  0.00  0.00     0.000 OA
ENDBRANCH 21 30
BRANCH 24 34
ATOM     34   C  SGN B   2     -26.093  51.258  14.6450  0.00  0.00     0.000 C
ATOM     35   O  SGN B   2     -25.318  52.401  14.5780  0.00  0.00     0.000 O
ATOM     36  @S  SGN B   2     -25.672  53.700  15.2930  0.00  0.00     0.000 S
ATOM     37   O  SGN B   2     -25.001  53.595  16.5740  0.00  0.00     0.000 OA
ATOM     38   O  SGN B   2     -25.177  54.777  14.4680  0.00  0.00     0.000 OA
ATOM     39   O  SGN B   2     -27.125  53.700  15.3870  0.00  0.00     0.000 OA
ENDBRANCH 24 34
BRANCH 20 40
ATOM     40  O4  IDS B   3     -23.389  48.514  13.2460  0.00  0.00     0.000 O
BRANCH 40 44
ATOM     41  C1  IDS B   3     -19.893  48.794  13.2820  0.00  0.00     0.000 C
ATOM     42  C2  IDS B   3     -20.560  47.455  12.9740  0.00  0.00     0.000 C
ATOM     43  C3  IDS B   3     -21.697  47.043  13.9280  0.00  0.00     0.000 C
ATOM     44  C4  IDS B   3     -22.544  48.239  14.3130  0.00  0.00     0.000 C
ATOM     45  C5  IDS B   3     -21.687  49.473  14.6370  0.00  0.00     0.000 C
ATOM     46  O5  IDS B   3     -20.870  49.784  13.5690  0.00  0.00     0.000 O
ATOM     47   O  IDS B   3     -21.144  46.494  15.1060  0.00  0.00     0.000 O
ATOM     49  HD  IDS B   3     -21.749  46.615  14.4980  0.00  0.00     0.000 HD
BRANCH 42 49
ATOM     49   O  IDS B   3     -21.104  47.515  11.6860  0.00  0.00     0.000 O
ATOM     50   O  IDS B   3     -19.531  45.951  10.8950  0.00  0.00     0.000 OA
ATOM     51   O  IDS B   3     -21.761  45.840  10.1090  0.00  0.00     0.000 OA
ATOM     52   O  IDS B   3     -20.370  47.645   9.4940  0.00  0.00     0.000 OA
ATOM     53  @S  IDS B   3     -20.668  46.685  10.4760  0.00  0.00     0.000 S
ENDBRANCH 42 49
BRANCH 45 54
ATOM     54 @CA  IDS B   3     -22.465  50.714  15.0690  0.00  0.00     0.000 C
ATOM     55   O  IDS B   3     -22.541  51.686  14.3670  0.00  0.00     0.000 OA
ATOM     56   O  IDS B   3     -23.042  50.752  16.1050  0.00  0.00     0.000 OA
ENDBRANCH 45 54
BRANCH 41 57
ATOM     57  O4  SGN B   4     -18.997  48.638  14.3330  0.00  0.00     0.000 O
BRANCH 57 61
ATOM     58  C1  SGN B   4     -17.451  52.438  13.9250  0.00  0.00     0.000 C
ATOM     59  C2  SGN B   4     -16.746  51.354  13.1280  0.00  0.00     0.000 C
ATOM     60  C3  SGN B   4     -17.627  50.110  13.0530  0.00  0.00     0.000 C
ATOM     61  C4  SGN B   4     -18.025  49.630  14.4540  0.00  0.00     0.000 C
ATOM     62  C5  SGN B   4     -18.638  50.814  15.1980  0.00  0.00     0.000 C
ATOM     63  O5  SGN B   4     -17.759  51.923  15.2100  0.00  0.00     0.000 O
ATOM     64   O  SGN B   4     -16.905  49.079  12.4130  0.00  0.00     0.000 O
ATOM     66  HD  SGN B   4     -16.774  48.357  12.8740  0.00  0.00     0.000 HD
BRANCH 59 68
ATOM     66   N  SGN B   4     -15.449  51.942  12.8630  0.00  0.00     0.000 N
ATOM     68  HD  SGN B   4     -16.096  52.052  13.4280  0.00  0.00     0.000 HD
ATOM     68 @NS  SGN B   4     -15.250  52.948  11.5830  0.00  0.00     0.000 S
ATOM     69   O  SGN B   4     -16.037  52.450  10.4940  0.00  0.00     0.000 OA
ATOM     70   O  SGN B   4     -15.711  54.236  12.0130  0.00  0.00     0.000 OA
ATOM     71   O  SGN B   4     -13.845  52.907  11.3150  0.00  0.00     0.000 OA
ENDBRANCH 59 68
BRANCH 62 72
ATOM     72   C  SGN B   4     -18.960  50.496  16.6500  0.00  0.00     0.000 C
ATOM     73   O  SGN B   4     -17.784  49.968  17.1880  0.00  0.00     0.000 O
ATOM     74  @S  SGN B   4     -17.284  50.081  18.6380  0.00  0.00     0.000 S
ATOM     75   O  SGN B   4     -18.281  49.520  19.4730  0.00  0.00     0.000 OA
ATOM     76   O  SGN B   4     -16.072  49.318  18.6530  0.00  0.00     0.000 OA
ATOM     77   O  SGN B   4     -17.122  51.474  18.8860  0.00  0.00     0.000 OA
ENDBRANCH 62 72
BRANCH 58 78
ATOM     78  O4  IDS B   5     -18.602  52.880  13.2350  0.00  0.00     0.000 O
BRANCH 78 82
ATOM     79  C1  IDS B   5     -21.473  54.630  12.4000  0.00  0.00     0.000 C
ATOM     80  C2  IDS B   5     -20.554  54.168  11.3110  0.00  0.00     0.000 C
ATOM     81  C3  IDS B   5     -19.090  54.532  11.5440  0.00  0.00     0.000 C
ATOM     82  C4  IDS B   5     -18.640  54.265  12.9660  0.00  0.00     0.000 C
ATOM     83  C5  IDS B   5     -19.634  54.906  13.8800  0.00  0.00     0.000 C
ATOM     84  O5  IDS B   5     -20.911  54.334  13.6670  0.00  0.00     0.000 O
ATOM     85   O  IDS B   5     -18.946  55.911  11.3020  0.00  0.00     0.000 O
ATOM     87  HD  IDS B   5     -18.718  55.460  12.0060  0.00  0.00     0.000 HD
BRANCH 80 87
ATOM     87   O  IDS B   5     -20.620  52.798  11.2440  0.00  0.00     0.000 O
ATOM     88  @S  IDS B   5     -21.146  51.957  10.0790  0.00  0.00     0.000 S
ATOM     89   O  IDS B   5     -20.431  52.413   8.9430  0.00  0.00     0.000 OA
ATOM     90   O  IDS B   5     -20.877  50.608  10.4360  0.00  0.00     0.000 OA
ATOM     91   O  IDS B   5     -22.541  52.220  10.0030  0.00  0.00     0.000 OA
ENDBRANCH 80 87
BRANCH 83 92
ATOM     92 @CA  IDS B   5     -19.221  54.886  15.3470  0.00  0.00     0.000 C
ATOM     93   O  IDS B   5     -18.269  55.561  15.7470  0.00  0.00     0.000 OA
ATOM     94   O  IDS B   5     -19.831  54.186  16.1640  0.00  0.00     0.000 OA
ENDBRANCH 83 92
BRANCH 79 95
ATOM     95  O4  SGN B   6     -21.733  55.985  12.2440  0.00  0.00     0.000 O
BRANCH 95 99
ATOM     96  C1  SGN B   6     -24.941  58.284  10.9680  0.00  0.00     0.000 C
ATOM     97  C2  SGN B   6     -25.123  57.569  12.3020  0.00  0.00     0.000 C
ATOM     98  C3  SGN B   6     -23.719  57.272  12.8320  0.00  0.00     0.000 C
ATOM     99  C4  SGN B   6     -23.053  56.286  11.8310  0.00  0.00     0.000 C
ATOM    100  C5  SGN B   6     -22.997  57.016  10.4590  0.00  0.00     0.000 C
ATOM    101  O5  SGN B   6     -24.291  57.438  10.0400  0.00  0.00     0.000 O
BRANCH 97 104
ATOM    102   N  SGN B   6     -26.151  58.580  12.5660  0.00  0.00     0.000 N
ATOM    104  HD  SGN B   6     -26.272  58.656  13.4200  0.00  0.00     0.000 HD
ATOM    104 @NS  SGN B   6     -27.559  58.074  13.2830  0.00  0.00     0.000 S
ATOM    105   O  SGN B   6     -27.437  56.655  13.5370  0.00  0.00     0.000 OA
ATOM    106   O  SGN B   6     -27.703  58.837  14.5020  0.00  0.00     0.000 OA
ATOM    107   O  SGN B   6     -28.613  58.349  12.3320  0.00  0.00     0.000 OA
ENDBRANCH 97 104
BRANCH 100 108
ATOM    108   C  SGN B   6     -22.420  56.215   9.2970  0.00  0.00     0.000 C
ATOM    109   O  SGN B   6     -21.324  56.907   8.7510  0.00  0.00     0.000 O
ATOM    110  @S  SGN B   6     -20.450  56.431   7.5350  0.00  0.00     0.000 S
ATOM    111   O  SGN B   6     -21.374  55.866   6.5800  0.00  0.00     0.000 OA
ATOM    112   O  SGN B   6     -19.786  57.617   7.0180  0.00  0.00     0.000 OA
ATOM    113   O  SGN B   6     -19.532  55.453   8.0710  0.00  0.00     0.000 OA
ENDBRANCH 100 108
ENDBRANCH 95 99
ENDBRANCH 79 95
ENDBRANCH 78 82
ENDBRANCH 58 78
ENDBRANCH 57 61
ENDBRANCH 41 57
ENDBRANCH 40 44
ENDBRANCH 20 40
ENDBRANCH 19 23
ENDBRANCH 1 19
TORSDOF 22
ENDMDL
MODEL 34
REMARK VINA RESULT:       1.6      2.723      8.418
ROOT
ATOM      1  C1  IDS B   1     -28.348  50.927  10.6030  0.00  0.00     0.000 C
ATOM      2  C2  IDS B   1     -29.259  51.794  11.4310  0.00  0.00     0.000 C
ATOM      3  C3  IDS B   1     -28.903  53.299  11.4830  0.00  0.00     0.000 C
ATOM      4  C4  IDS B   1     -28.148  53.816  10.2020  0.00  0.00     0.000 C
ATOM      5  C5  IDS B   1     -27.319  52.707   9.5100  0.00  0.00     0.000 C
ATOM      6  O5  IDS B   1     -28.095  51.548   9.3600  0.00  0.00     0.000 O
ATOM      7   O  IDS B   1     -28.122  53.508  12.6560  0.00  0.00     0.000 O
ATOM      9  HD  IDS B   1     -27.951  54.132  12.0800  0.00  0.00     0.000 HD
ATOM      9   O  IDS B   1     -29.119  54.269   9.2860  0.00  0.00     0.000 O
ATOM     11  HD  IDS B   1     -28.948  54.892   8.7090  0.00  0.00     0.000 HD
ENDROOT
BRANCH 2 11
ATOM     11   O  IDS B   1     -30.553  51.714  10.9400  0.00  0.00     0.000 O
ATOM     12  @S  IDS B   1     -31.801  51.469  11.8090  0.00  0.00     0.000 S
ATOM     13   O  IDS B   1     -31.289  50.746  12.9560  0.00  0.00     0.000 OA
ATOM     14   O  IDS B   1     -32.326  52.775  12.1630  0.00  0.00     0.000 OA
ATOM     15   O  IDS B   1     -32.712  50.700  10.9840  0.00  0.00     0.000 OA
ENDBRANCH 2 11
BRANCH 5 16
ATOM     16 @CA  IDS B   1     -26.672  53.070   8.1770  0.00  0.00     0.000 C
ATOM     17   O  IDS B   1     -25.995  54.087   8.0450  0.00  0.00     0.000 OA
ATOM     18   O  IDS B   1     -26.805  52.338   7.1990  0.00  0.00     0.000 OA
ENDBRANCH 5 16
BRANCH 1 19
ATOM     19  O4  SGN B   2     -27.149  50.738  11.3250  0.00  0.00     0.000 O
BRANCH 19 23
ATOM     20  C1  SGN B   2     -26.146  47.874  14.0730  0.00  0.00     0.000 C
ATOM     21  C2  SGN B   2     -27.230  47.565  13.0640  0.00  0.00     0.000 C
ATOM     22  C3  SGN B   2     -27.044  48.419  11.8610  0.00  0.00     0.000 C
ATOM     23  C4  SGN B   2     -27.232  49.832  12.3650  0.00  0.00     0.000 C
ATOM     24  C5  SGN B   2     -26.083  50.077  13.2810  0.00  0.00     0.000 C
ATOM     25  O5  SGN B   2     -26.196  49.258  14.3880  0.00  0.00     0.000 O
ATOM     26   O  SGN B   2     -28.010  48.108  10.9210  0.00  0.00     0.000 O
ATOM     28  HD  SGN B   2     -28.694  48.080  10.3890  0.00  0.00     0.000 HD
BRANCH 21 30
ATOM     28   N  SGN B   2     -27.097  46.155  12.8400  0.00  0.00     0.000 N
ATOM     30  HD  SGN B   2     -27.683  46.067  12.2100  0.00  0.00     0.000 HD
ATOM     30 @NS  SGN B   2     -27.980  45.172  13.7860  0.00  0.00     0.000 S
ATOM     31   O  SGN B   2     -28.862  45.957  14.5830  0.00  0.00     0.000 OA
ATOM     32   O  SGN B   2     -28.685  44.377  12.8670  0.00  0.00     0.000 OA
ATOM     33   O  SGN B   2     -27.058  44.464  14.5910  0.00  0.00     0.000 OA
ENDBRANCH 21 30
BRANCH 24 34
ATOM     34   C  SGN B   2     -25.958  51.467  13.7860  0.00  0.00     0.000 C
ATOM     35   O  SGN B   2     -25.879  51.403  15.1660  0.00  0.00     0.000 O
ATOM     36  @S  SGN B   2     -25.529  52.600  16.0430  0.00  0.00     0.000 S
ATOM     37   O  SGN B   2     -26.812  53.188  16.3720  0.00  0.00     0.000 OA
ATOM     38   O  SGN B   2     -24.820  52.081  17.1890  0.00  0.00     0.000 OA
ATOM     39   O  SGN B   2     -24.686  53.449  15.2120  0.00  0.00     0.000 OA
ENDBRANCH 24 34
BRANCH 20 40
ATOM     40  O4  IDS B   3     -24.896  47.514  13.5720  0.00  0.00     0.000 O
BRANCH 40 44
ATOM     41  C1  IDS B   3     -21.525  46.583  13.2980  0.00  0.00     0.000 C
ATOM     42  C2  IDS B   3     -22.634  45.583  12.9750  0.00  0.00     0.000 C
ATOM     43  C3  IDS B   3     -23.777  45.500  14.0050  0.00  0.00     0.000 C
ATOM     44  C4  IDS B   3     -24.128  46.875  14.5380  0.00  0.00     0.000 C
ATOM     45  C5  IDS B   3     -22.877  47.710  14.8530  0.00  0.00     0.000 C
ATOM     46  O5  IDS B   3     -22.077  47.817  13.7330  0.00  0.00     0.000 O
ATOM     47   O  IDS B   3     -23.370  44.695  15.0920  0.00  0.00     0.000 O
ATOM     49  HD  IDS B   3     -23.935  45.067  14.5510  0.00  0.00     0.000 HD
BRANCH 42 49
ATOM     49   O  IDS B   3     -23.208  45.938  11.7500  0.00  0.00     0.000 O
ATOM     50   O  IDS B   3     -22.068  44.193  10.6530  0.00  0.00     0.000 OA
ATOM     51   O  IDS B   3     -24.299  44.681  10.0310  0.00  0.00     0.000 OA
ATOM     52   O  IDS B   3     -22.565  46.206   9.5420  0.00  0.00     0.000 OA
ATOM     53  @S  IDS B   3     -23.028  45.208  10.4160  0.00  0.00     0.000 S
ENDBRANCH 42 49
BRANCH 45 54
ATOM     54 @CA  IDS B   3     -23.146  49.099  15.4280  0.00  0.00     0.000 C
ATOM     55   O  IDS B   3     -22.933  50.096  14.7930  0.00  0.00     0.000 OA
ATOM     56   O  IDS B   3     -23.596  49.240  16.5170  0.00  0.00     0.000 OA
ENDBRANCH 45 54
BRANCH 41 57
ATOM     57  O4  SGN B   4     -20.670  46.039  14.2500  0.00  0.00     0.000 O
BRANCH 57 61
ATOM     58  C1  SGN B   4     -17.815  48.979  13.8060  0.00  0.00     0.000 C
ATOM     59  C2  SGN B   4     -17.685  47.791  12.8680  0.00  0.00     0.000 C
ATOM     60  C3  SGN B   4     -18.985  46.993  12.8600  0.00  0.00     0.000 C
ATOM     61  C4  SGN B   4     -19.381  46.567  14.2790  0.00  0.00     0.000 C
ATOM     62  C5  SGN B   4     -19.393  47.816  15.1560  0.00  0.00     0.000 C
ATOM     63  O5  SGN B   4     -18.154  48.499  15.0960  0.00  0.00     0.000 O
ATOM     64   O  SGN B   4     -18.801  45.832  12.0770  0.00  0.00     0.000 O
ATOM     66  HD  SGN B   4     -18.913  45.074  12.4810  0.00  0.00     0.000 HD
BRANCH 59 68
ATOM     66   N  SGN B   4     -16.352  47.721  12.3050  0.00  0.00     0.000 N
ATOM     68  HD  SGN B   4     -16.716  47.955  13.0550  0.00  0.00     0.000 HD
ATOM     68 @NS  SGN B   4     -15.866  48.835  11.2040  0.00  0.00     0.000 S
ATOM     69   O  SGN B   4     -16.979  49.140  10.3530  0.00  0.00     0.000 OA
ATOM     70   O  SGN B   4     -15.454  49.985  11.9550  0.00  0.00     0.000 OA
ATOM     71   O  SGN B   4     -14.793  48.197  10.5040  0.00  0.00     0.000 OA
ENDBRANCH 59 68
BRANCH 62 72
ATOM     72   C  SGN B   4     -19.649  47.505  16.6230  0.00  0.00     0.000 C
ATOM     73   O  SGN B   4     -18.427  47.708  17.2680  0.00  0.00     0.000 O
ATOM     74  @S  SGN B   4     -18.199  48.188  18.7120  0.00  0.00     0.000 S
ATOM     75   O  SGN B   4     -18.850  47.269  19.5700  0.00  0.00     0.000 OA
ATOM     76   O  SGN B   4     -16.776  48.164  18.8690  0.00  0.00     0.000 OA
ATOM     77   O  SGN B   4     -18.792  49.481  18.7900  0.00  0.00     0.000 OA
ENDBRANCH 62 72
BRANCH 58 78
ATOM     78  O4  IDS B   5     -18.769  49.893  13.3050  0.00  0.00     0.000 O
BRANCH 78 82
ATOM     79  C1  IDS B   5     -20.834  52.547  12.4740  0.00  0.00     0.000 C
ATOM     80  C2  IDS B   5     -19.854  52.036  11.4620  0.00  0.00     0.000 C
ATOM     81  C3  IDS B   5     -18.432  51.894  11.9990  0.00  0.00     0.000 C
ATOM     82  C4  IDS B   5     -18.386  51.250  13.3690  0.00  0.00     0.000 C
ATOM     83  C5  IDS B   5     -19.353  51.982  14.2440  0.00  0.00     0.000 C
ATOM     84  O5  IDS B   5     -20.657  51.870  13.7050  0.00  0.00     0.000 O
ATOM     85   O  IDS B   5     -17.885  53.185  12.1160  0.00  0.00     0.000 O
ATOM     87  HD  IDS B   5     -17.940  52.566  12.7190  0.00  0.00     0.000 HD
BRANCH 80 87
ATOM     87   O  IDS B   5     -20.259  50.787  11.0640  0.00  0.00     0.000 O
ATOM     88  @S  IDS B   5     -21.550  50.429  10.3240  0.00  0.00     0.000 S
ATOM     89   O  IDS B   5     -21.568  51.275   9.1860  0.00  0.00     0.000 OA
ATOM     90   O  IDS B   5     -21.440  49.045  10.0210  0.00  0.00     0.000 OA
ATOM     91   O  IDS B   5     -22.610  50.693  11.2320  0.00  0.00     0.000 OA
ENDBRANCH 80 87
BRANCH 83 92
ATOM     92 @CA  IDS B   5     -19.287  51.572  15.7100  0.00  0.00     0.000 C
ATOM     93   O  IDS B   5     -20.287  51.156  16.2990  0.00  0.00     0.000 OA
ATOM     94   O  IDS B   5     -18.225  51.654  16.3390  0.00  0.00     0.000 OA
ENDBRANCH 83 92
BRANCH 79 95
ATOM     95  O4  SGN B   6     -20.692  53.922  12.6040  0.00  0.00     0.000 O
BRANCH 95 99
ATOM     96  C1  SGN B   6     -23.177  57.116  13.5150  0.00  0.00     0.000 C
ATOM     97  C2  SGN B   6     -22.961  56.102  14.6310  0.00  0.00     0.000 C
ATOM     98  C3  SGN B   6     -21.654  55.374  14.3120  0.00  0.00     0.000 C
ATOM     99  C4  SGN B   6     -21.876  54.602  12.9800  0.00  0.00     0.000 C
ATOM    100  C5  SGN B   6     -22.209  55.669  11.8980  0.00  0.00     0.000 C
ATOM    101  O5  SGN B   6     -23.334  56.457  12.2740  0.00  0.00     0.000 O
BRANCH 97 104
ATOM    102   N  SGN B   6     -23.075  56.045  16.0920  0.00  0.00     0.000 N
ATOM    104  HD  SGN B   6     -23.788  55.605  16.3110  0.00  0.00     0.000 HD
ATOM    104 @NS  SGN B   6     -24.375  56.805  16.7900  0.00  0.00     0.000 S
ATOM    105   O  SGN B   6     -25.181  57.363  15.7260  0.00  0.00     0.000 OA
ATOM    106   O  SGN B   6     -25.088  55.800  17.5440  0.00  0.00     0.000 OA
ATOM    107   O  SGN B   6     -23.826  57.842  17.6340  0.00  0.00     0.000 OA
ENDBRANCH 97 104
BRANCH 100 108
ATOM    108   C  SGN B   6     -22.517  55.135  10.5040  0.00  0.00     0.000 C
ATOM    109   O  SGN B   6     -21.701  55.788   9.5630  0.00  0.00     0.000 O
ATOM    110  @S  SGN B   6     -21.705  55.538   8.0120  0.00  0.00     0.000 S
ATOM    111   O  SGN B   6     -23.091  55.382   7.6390  0.00  0.00     0.000 OA
ATOM    112   O  SGN B   6     -21.104  56.714   7.4040  0.00  0.00     0.000 OA
ATOM    113   O  SGN B   6     -20.932  54.334   7.8070  0.00  0.00     0.000 OA
ENDBRANCH 100 108
ENDBRANCH 95 99
ENDBRANCH 79 95
ENDBRANCH 78 82
ENDBRANCH 58 78
ENDBRANCH 57 61
ENDBRANCH 41 57
ENDBRANCH 40 44
ENDBRANCH 20 40
ENDBRANCH 19 23
ENDBRANCH 1 19
TORSDOF 22
ENDMDL
MODEL 35
REMARK VINA RESULT:       1.7      2.663      7.978
ROOT
ATOM      1  C1  IDS B   1     -26.694  52.268  10.9740  0.00  0.00     0.000 C
ATOM      2  C2  IDS B   1     -26.559  52.780   9.5640  0.00  0.00     0.000 C
ATOM      3  C3  IDS B   1     -27.287  51.961   8.4710  0.00  0.00     0.000 C
ATOM      4  C4  IDS B   1     -28.560  51.197   8.9950  0.00  0.00     0.000 C
ATOM      5  C5  IDS B   1     -28.459  50.828  10.4950  0.00  0.00     0.000 C
ATOM      6  O5  IDS B   1     -28.043  51.942  11.2380  0.00  0.00     0.000 O
ATOM      7   O  IDS B   1     -26.338  51.054   7.9190  0.00  0.00     0.000 O
ATOM      9  HD  IDS B   1     -27.138  50.746   7.7970  0.00  0.00     0.000 HD
ATOM      9   O  IDS B   1     -29.670  52.051   8.8310  0.00  0.00     0.000 O
ATOM     11  HD  IDS B   1     -30.470  51.743   8.7080  0.00  0.00     0.000 HD
ENDROOT
BRANCH 2 11
ATOM     11   O  IDS B   1     -27.060  54.070   9.4860  0.00  0.00     0.000 O
ATOM     12  @S  IDS B   1     -26.570  55.136   8.4870  0.00  0.00     0.000 S
ATOM     13   O  IDS B   1     -25.204  54.743   8.2030  0.00  0.00     0.000 OA
ATOM     14   O  IDS B   1     -27.431  55.042   7.3220  0.00  0.00     0.000 OA
ATOM     15   O  IDS B   1     -26.689  56.406   9.1750  0.00  0.00     0.000 OA
ENDBRANCH 2 11
BRANCH 5 16
ATOM     16 @CA  IDS B   1     -29.705  50.220  11.1320  0.00  0.00     0.000 C
ATOM     17   O  IDS B   1     -29.854  50.186  12.3520  0.00  0.00     0.000 OA
ATOM     18   O  IDS B   1     -30.601  49.757  10.4310  0.00  0.00     0.000 OA
ENDBRANCH 5 16
BRANCH 1 19
ATOM     19  O4  SGN B   2     -25.865  51.132  11.1070  0.00  0.00     0.000 O
BRANCH 19 23
ATOM     20  C1  SGN B   2     -24.793  49.780  14.8190  0.00  0.00     0.000 C
ATOM     21  C2  SGN B   2     -25.156  48.768  13.7550  0.00  0.00     0.000 C
ATOM     22  C3  SGN B   2     -24.939  49.366  12.4110  0.00  0.00     0.000 C
ATOM     23  C4  SGN B   2     -25.914  50.518  12.3450  0.00  0.00     0.000 C
ATOM     24  C5  SGN B   2     -25.435  51.496  13.3610  0.00  0.00     0.000 C
ATOM     25  O5  SGN B   2     -25.573  50.951  14.6230  0.00  0.00     0.000 O
ATOM     26   O  SGN B   2     -25.232  48.428  11.4360  0.00  0.00     0.000 O
ATOM     28  HD  SGN B   2     -25.575  47.946  10.8040  0.00  0.00     0.000 HD
BRANCH 21 30
ATOM     28   N  SGN B   2     -24.600  47.447  13.7740  0.00  0.00     0.000 N
ATOM     30  HD  SGN B   2     -25.212  47.041  13.3140  0.00  0.00     0.000 HD
ATOM     30 @NS  SGN B   2     -24.960  46.515  15.0550  0.00  0.00     0.000 S
ATOM     31   O  SGN B   2     -25.922  47.183  15.8660  0.00  0.00     0.000 OA
ATOM     32   O  SGN B   2     -25.492  45.350  14.4780  0.00  0.00     0.000 OA
ATOM     33   O  SGN B   2     -23.748  46.322  15.7570  0.00  0.00     0.000 OA
ENDBRANCH 21 30
BRANCH 24 34
ATOM     34   C  SGN B   2     -26.146  52.798  13.3770  0.00  0.00     0.000 C
ATOM     35   O  SGN B   2     -25.201  53.788  13.5740  0.00  0.00     0.000 O
ATOM     36  @S  SGN B   2     -25.501  55.276  13.4390  0.00  0.00     0.000 S
ATOM     37   O  SGN B   2     -25.878  55.687  14.7770  0.00  0.00     0.000 OA
ATOM     38   O  SGN B   2     -24.290  55.903  12.9610  0.00  0.00     0.000 OA
ATOM     39   O  SGN B   2     -26.584  55.360  12.4690  0.00  0.00     0.000 OA
ENDBRANCH 24 34
BRANCH 20 40
ATOM     40  O4  IDS B   3     -23.429  50.067  14.7750  0.00  0.00     0.000 O
BRANCH 40 44
ATOM     41  C1  IDS B   3     -20.052  50.473  15.6330  0.00  0.00     0.000 C
ATOM     42  C2  IDS B   3     -20.712  49.097  15.7110  0.00  0.00     0.000 C
ATOM     43  C3  IDS B   3     -22.085  49.056  16.4080  0.00  0.00     0.000 C
ATOM     44  C4  IDS B   3     -22.913  50.273  16.0480  0.00  0.00     0.000 C
ATOM     45  C5  IDS B   3     -22.083  51.566  16.0770  0.00  0.00     0.000 C
ATOM     46  O5  IDS B   3     -20.995  51.456  15.2340  0.00  0.00     0.000 O
ATOM     47   O  IDS B   3     -21.899  49.044  17.8080  0.00  0.00     0.000 O
ATOM     49  HD  IDS B   3     -22.315  48.889  17.0640  0.00  0.00     0.000 HD
BRANCH 42 49
ATOM     49   O  IDS B   3     -20.896  48.618  14.4090  0.00  0.00     0.000 O
ATOM     50   O  IDS B   3     -18.697  47.775  14.3550  0.00  0.00     0.000 OA
ATOM     51   O  IDS B   3     -20.438  46.517  13.3600  0.00  0.00     0.000 OA
ATOM     52   O  IDS B   3     -19.745  48.559  12.4010  0.00  0.00     0.000 OA
ATOM     53  @S  IDS B   3     -19.885  47.816  13.5850  0.00  0.00     0.000 S
ENDBRANCH 42 49
BRANCH 45 54
ATOM     54 @CA  IDS B   3     -22.853  52.845  15.7590  0.00  0.00     0.000 C
ATOM     55   O  IDS B   3     -23.723  53.254  16.4810  0.00  0.00     0.000 OA
ATOM     56   O  IDS B   3     -22.603  53.493  14.7980  0.00  0.00     0.000 OA
ENDBRANCH 45 54
BRANCH 41 57
ATOM     57  O4  SGN B   4     -19.474  50.782  16.8580  0.00  0.00     0.000 O
BRANCH 57 61
ATOM     58  C1  SGN B   4     -17.122  53.775  15.2760  0.00  0.00     0.000 C
ATOM     59  C2  SGN B   4     -16.487  52.396  15.3200  0.00  0.00     0.000 C
ATOM     60  C3  SGN B   4     -17.563  51.338  15.5470  0.00  0.00     0.000 C
ATOM     61  C4  SGN B   4     -18.376  51.639  16.8120  0.00  0.00     0.000 C
ATOM     62  C5  SGN B   4     -18.889  53.073  16.7080  0.00  0.00     0.000 C
ATOM     63  O5  SGN B   4     -17.828  53.984  16.4880  0.00  0.00     0.000 O
ATOM     64   O  SGN B   4     -16.939  50.080  15.7030  0.00  0.00     0.000 O
ATOM     66  HD  SGN B   4     -17.075  49.674  16.4550  0.00  0.00     0.000 HD
BRANCH 59 68
ATOM     66   N  SGN B   4     -15.807  52.186  14.0580  0.00  0.00     0.000 N
ATOM     68  HD  SGN B   4     -15.950  51.741  14.7880  0.00  0.00     0.000 HD
ATOM     68 @NS  SGN B   4     -14.368  52.918  13.7700  0.00  0.00     0.000 S
ATOM     69   O  SGN B   4     -14.409  54.231  14.3420  0.00  0.00     0.000 OA
ATOM     70   O  SGN B   4     -13.372  52.104  14.4060  0.00  0.00     0.000 OA
ATOM     71   O  SGN B   4     -14.259  52.938  12.3430  0.00  0.00     0.000 OA
ENDBRANCH 59 68
BRANCH 62 72
ATOM     72   C  SGN B   4     -19.608  53.535  17.9660  0.00  0.00     0.000 C
ATOM     73   O  SGN B   4     -19.283  54.886  18.1070  0.00  0.00     0.000 O
ATOM     74  @S  SGN B   4     -20.151  55.999  18.7210  0.00  0.00     0.000 S
ATOM     75   O  SGN B   4     -20.453  55.615  20.0500  0.00  0.00     0.000 OA
ATOM     76   O  SGN B   4     -19.319  57.163  18.6670  0.00  0.00     0.000 OA
ATOM     77   O  SGN B   4     -21.326  56.061  17.9180  0.00  0.00     0.000 OA
ENDBRANCH 62 72
BRANCH 58 78
ATOM     78  O4  IDS B   5     -17.956  53.892  14.1420  0.00  0.00     0.000 O
BRANCH 78 82
ATOM     79  C1  IDS B   5     -19.575  54.580  11.1580  0.00  0.00     0.000 C
ATOM     80  C2  IDS B   5     -18.169  54.064  11.1260  0.00  0.00     0.000 C
ATOM     81  C3  IDS B   5     -17.212  54.822  12.0430  0.00  0.00     0.000 C
ATOM     82  C4  IDS B   5     -17.804  55.090  13.4110  0.00  0.00     0.000 C
ATOM     83  C5  IDS B   5     -19.152  55.705  13.2070  0.00  0.00     0.000 C
ATOM     84  O5  IDS B   5     -19.980  54.804  12.4960  0.00  0.00     0.000 O
ATOM     85   O  IDS B   5     -16.941  56.067  11.4440  0.00  0.00     0.000 O
ATOM     87  HD  IDS B   5     -17.230  55.905  12.2440  0.00  0.00     0.000 HD
BRANCH 80 87
ATOM     87   O  IDS B   5     -18.180  52.759  11.5530  0.00  0.00     0.000 O
ATOM     88  @S  IDS B   5     -17.505  51.563  10.8770  0.00  0.00     0.000 S
ATOM     89   O  IDS B   5     -16.152  51.952  10.7060  0.00  0.00     0.000 OA
ATOM     90   O  IDS B   5     -17.690  50.472  11.7680  0.00  0.00     0.000 OA
ATOM     91   O  IDS B   5     -18.190  51.368   9.6470  0.00  0.00     0.000 OA
ENDBRANCH 80 87
BRANCH 83 92
ATOM     92 @CA  IDS B   5     -19.799  56.206  14.4930  0.00  0.00     0.000 C
ATOM     93   O  IDS B   5     -19.128  56.761  15.3670  0.00  0.00     0.000 OA
ATOM     94   O  IDS B   5     -21.012  56.059  14.6860  0.00  0.00     0.000 OA
ENDBRANCH 83 92
BRANCH 79 95
ATOM     95  O4  SGN B   6     -19.664  55.729  10.3820  0.00  0.00     0.000 O
BRANCH 95 99
ATOM     96  C1  SGN B   6     -23.065  57.928   9.4830  0.00  0.00     0.000 C
ATOM     97  C2  SGN B   6     -21.972  58.671  10.2410  0.00  0.00     0.000 C
ATOM     98  C3  SGN B   6     -20.669  57.915   9.9820  0.00  0.00     0.000 C
ATOM     99  C4  SGN B   6     -20.829  56.501  10.6090  0.00  0.00     0.000 C
ATOM    100  C5  SGN B   6     -22.029  55.826   9.8840  0.00  0.00     0.000 C
ATOM    101  O5  SGN B   6     -23.210  56.615   9.9890  0.00  0.00     0.000 O
BRANCH 97 104
ATOM    102   N  SGN B   6     -22.829  59.549  11.0450  0.00  0.00     0.000 N
ATOM    104  HD  SGN B   6     -23.409  59.937  10.5330  0.00  0.00     0.000 HD
ATOM    104 @NS  SGN B   6     -22.756  61.179  10.7450  0.00  0.00     0.000 S
ATOM    105   O  SGN B   6     -21.824  61.384   9.6580  0.00  0.00     0.000 OA
ATOM    106   O  SGN B   6     -24.095  61.599  10.4020  0.00  0.00     0.000 OA
ATOM    107   O  SGN B   6     -22.282  61.789  11.9670  0.00  0.00     0.000 OA
ENDBRANCH 97 104
BRANCH 100 108
ATOM    108   C  SGN B   6     -22.410  54.434  10.3720  0.00  0.00     0.000 C
ATOM    109   O  SGN B   6     -21.686  53.471   9.6470  0.00  0.00     0.000 O
ATOM    110  @S  SGN B   6     -21.786  51.913   9.8320  0.00  0.00     0.000 S
ATOM    111   O  SGN B   6     -23.186  51.627  10.0320  0.00  0.00     0.000 OA
ATOM    112   O  SGN B   6     -21.275  51.320   8.6070  0.00  0.00     0.000 OA
ATOM    113   O  SGN B   6     -20.981  51.605  10.9920  0.00  0.00     0.000 OA
ENDBRANCH 100 108
ENDBRANCH 95 99
ENDBRANCH 79 95
ENDBRANCH 78 82
ENDBRANCH 58 78
ENDBRANCH 57 61
ENDBRANCH 41 57
ENDBRANCH 40 44
ENDBRANCH 20 40
ENDBRANCH 19 23
ENDBRANCH 1 19
TORSDOF 22
ENDMDL
MODEL 36
REMARK VINA RESULT:       1.8      2.656      8.174
ROOT
ATOM      1  C1  IDS B   1     -27.178  52.273  10.8990  0.00  0.00     0.000 C
ATOM      2  C2  IDS B   1     -27.016  52.699   9.4630  0.00  0.00     0.000 C
ATOM      3  C3  IDS B   1     -27.814  51.883   8.4180  0.00  0.00     0.000 C
ATOM      4  C4  IDS B   1     -29.138  51.248   8.9870  0.00  0.00     0.000 C
ATOM      5  C5  IDS B   1     -29.053  50.951  10.5040  0.00  0.00     0.000 C
ATOM      6  O5  IDS B   1     -28.546  52.066  11.1860  0.00  0.00     0.000 O
ATOM      7   O  IDS B   1     -26.942  50.878   7.9110  0.00  0.00     0.000 O
ATOM      9  HD  IDS B   1     -27.764  50.626   7.8080  0.00  0.00     0.000 HD
ATOM      9   O  IDS B   1     -30.180  52.175   8.7830  0.00  0.00     0.000 O
ATOM     11  HD  IDS B   1     -31.002  51.923   8.6800  0.00  0.00     0.000 HD
ENDROOT
BRANCH 2 11
ATOM     11   O  IDS B   1     -27.417  54.018   9.3200  0.00  0.00     0.000 O
ATOM     12  @S  IDS B   1     -26.645  55.080   8.5140  0.00  0.00     0.000 S
ATOM     13   O  IDS B   1     -25.273  54.616   8.5530  0.00  0.00     0.000 OA
ATOM     14   O  IDS B   1     -27.199  55.070   7.1720  0.00  0.00     0.000 OA
ATOM     15   O  IDS B   1     -26.865  56.336   9.2040  0.00  0.00     0.000 OA
ENDBRANCH 2 11
BRANCH 5 16
ATOM     16 @CA  IDS B   1     -30.336  50.474  11.1780  0.00  0.00     0.000 C
ATOM     17   O  IDS B   1     -30.511  50.592  12.3890  0.00  0.00     0.000 OA
ATOM     18   O  IDS B   1     -31.238  49.968  10.5150  0.00  0.00     0.000 OA
ENDBRANCH 5 16
BRANCH 1 19
ATOM     19  O4  SGN B   2     -26.438  51.085  11.0890  0.00  0.00     0.000 O
BRANCH 19 23
ATOM     20  C1  SGN B   2     -24.881  50.198  14.7690  0.00  0.00     0.000 C
ATOM     21  C2  SGN B   2     -25.488  49.082  13.9490  0.00  0.00     0.000 C
ATOM     22  C3  SGN B   2     -25.448  49.448  12.5090  0.00  0.00     0.000 C
ATOM     23  C4  SGN B   2     -26.331  50.670  12.4030  0.00  0.00     0.000 C
ATOM     24  C5  SGN B   2     -25.620  51.734  13.1640  0.00  0.00     0.000 C
ATOM     25  O5  SGN B   2     -25.592  51.399  14.5040  0.00  0.00     0.000 O
ATOM     26   O  SGN B   2     -25.966  48.410  11.7540  0.00  0.00     0.000 O
ATOM     28  HD  SGN B   2     -26.443  47.876  11.2670  0.00  0.00     0.000 HD
BRANCH 21 30
ATOM     28   N  SGN B   2     -24.634  48.037  14.4330  0.00  0.00     0.000 N
ATOM     30  HD  SGN B   2     -24.795  47.443  13.8230  0.00  0.00     0.000 HD
ATOM     30 @NS  SGN B   2     -25.254  47.038  15.5540  0.00  0.00     0.000 S
ATOM     31   O  SGN B   2     -26.638  47.328  15.7270  0.00  0.00     0.000 OA
ATOM     32   O  SGN B   2     -25.061  45.760  15.0020  0.00  0.00     0.000 OA
ATOM     33   O  SGN B   2     -24.529  47.280  16.7440  0.00  0.00     0.000 OA
ENDBRANCH 21 30
BRANCH 24 34
ATOM     34   C  SGN B   2     -26.219  53.089  13.0740  0.00  0.00     0.000 C
ATOM     35   O  SGN B   2     -25.320  53.981  13.6300  0.00  0.00     0.000 O
ATOM     36  @S  SGN B   2     -25.470  55.495  13.5370  0.00  0.00     0.000 S
ATOM     37   O  SGN B   2     -26.214  55.853  14.7280  0.00  0.00     0.000 OA
ATOM     38   O  SGN B   2     -24.135  56.044  13.5010  0.00  0.00     0.000 OA
ATOM     39   O  SGN B   2     -26.196  55.730  12.2960  0.00  0.00     0.000 OA
ENDBRANCH 24 34
BRANCH 20 40
ATOM     40  O4  IDS B   3     -23.524  50.337  14.4760  0.00  0.00     0.000 O
BRANCH 40 44
ATOM     41  C1  IDS B   3     -20.043  50.716  14.6750  0.00  0.00     0.000 C
ATOM     42  C2  IDS B   3     -20.679  49.330  14.7670  0.00  0.00     0.000 C
ATOM     43  C3  IDS B   3     -21.886  49.212  15.7180  0.00  0.00     0.000 C
ATOM     44  C4  IDS B   3     -22.765  50.444  15.6340  0.00  0.00     0.000 C
ATOM     45  C5  IDS B   3     -21.941  51.741  15.6050  0.00  0.00     0.000 C
ATOM     46  O5  IDS B   3     -21.043  51.716  14.5560  0.00  0.00     0.000 O
ATOM     47   O  IDS B   3     -21.424  49.087  17.0470  0.00  0.00     0.000 O
ATOM     49  HD  IDS B   3     -21.980  48.989  16.3900  0.00  0.00     0.000 HD
BRANCH 42 49
ATOM     49   O  IDS B   3     -21.120  48.958  13.4930  0.00  0.00     0.000 O
ATOM     50   O  IDS B   3     -20.465  46.726  13.8630  0.00  0.00     0.000 OA
ATOM     51   O  IDS B   3     -22.478  47.157  12.6940  0.00  0.00     0.000 OA
ATOM     52   O  IDS B   3     -20.395  47.671  11.7100  0.00  0.00     0.000 OA
ATOM     53  @S  IDS B   3     -21.118  47.543  12.9070  0.00  0.00     0.000 S
ENDBRANCH 42 49
BRANCH 45 54
ATOM     54 @CA  IDS B   3     -22.754  53.032  15.5550  0.00  0.00     0.000 C
ATOM     55   O  IDS B   3     -23.691  53.215  16.2850  0.00  0.00     0.000 OA
ATOM     56   O  IDS B   3     -22.474  53.910  14.8080  0.00  0.00     0.000 OA
ENDBRANCH 45 54
BRANCH 41 57
ATOM     57  O4  SGN B   4     -19.231  50.930  15.7830  0.00  0.00     0.000 O
BRANCH 57 61
ATOM     58  C1  SGN B   4     -17.420  54.261  14.1630  0.00  0.00     0.000 C
ATOM     59  C2  SGN B   4     -16.751  52.933  13.8510  0.00  0.00     0.000 C
ATOM     60  C3  SGN B   4     -17.708  51.786  14.1610  0.00  0.00     0.000 C
ATOM     61  C4  SGN B   4     -18.203  51.856  15.6110  0.00  0.00     0.000 C
ATOM     62  C5  SGN B   4     -18.771  53.253  15.8440  0.00  0.00     0.000 C
ATOM     63  O5  SGN B   4     -17.823  54.253  15.5230  0.00  0.00     0.000 O
ATOM     64   O  SGN B   4     -17.026  50.562  13.9780  0.00  0.00     0.000 O
ATOM     66  HD  SGN B   4     -16.965  50.048  14.6720  0.00  0.00     0.000 HD
BRANCH 59 68
ATOM     66   N  SGN B   4     -15.385  53.171  13.4310  0.00  0.00     0.000 N
ATOM     68  HD  SGN B   4     -15.961  53.534  13.9670  0.00  0.00     0.000 HD
ATOM     68 @NS  SGN B   4     -15.081  53.802  11.9480  0.00  0.00     0.000 S
ATOM     69   O  SGN B   4     -16.020  53.242  11.0200  0.00  0.00     0.000 OA
ATOM     70   O  SGN B   4     -15.256  55.220  12.0730  0.00  0.00     0.000 OA
ATOM     71   O  SGN B   4     -13.731  53.417  11.6690  0.00  0.00     0.000 OA
ENDBRANCH 59 68
BRANCH 62 72
ATOM     72   C  SGN B   4     -19.182  53.490  17.2890  0.00  0.00     0.000 C
ATOM     73   O  SGN B   4     -18.963  54.849  17.5230  0.00  0.00     0.000 O
ATOM     74  @S  SGN B   4     -19.746  55.774  18.4710  0.00  0.00     0.000 S
ATOM     75   O  SGN B   4     -19.656  55.221  19.7710  0.00  0.00     0.000 OA
ATOM     76   O  SGN B   4     -19.072  57.034  18.3680  0.00  0.00     0.000 OA
ATOM     77   O  SGN B   4     -21.089  55.770  17.9960  0.00  0.00     0.000 OA
ENDBRANCH 62 72
BRANCH 58 78
ATOM     78  O4  IDS B   5     -18.505  54.478  13.2840  0.00  0.00     0.000 O
BRANCH 78 82
ATOM     79  C1  IDS B   5     -21.229  55.871  11.6600  0.00  0.00     0.000 C
ATOM     80  C2  IDS B   5     -20.221  55.096  10.8670  0.00  0.00     0.000 C
ATOM     81  C3  IDS B   5     -18.777  55.519  11.1240  0.00  0.00     0.000 C
ATOM     82  C4  IDS B   5     -18.477  55.710  12.5960  0.00  0.00     0.000 C
ATOM     83  C5  IDS B   5     -19.538  56.601  13.1600  0.00  0.00     0.000 C
ATOM     84  O5  IDS B   5     -20.803  55.986  13.0060  0.00  0.00     0.000 O
ATOM     85   O  IDS B   5     -18.571  56.754  10.4820  0.00  0.00     0.000 O
ATOM     87  HD  IDS B   5     -18.426  56.546  11.3100  0.00  0.00     0.000 HD
BRANCH 80 87
ATOM     87   O  IDS B   5     -20.320  53.773  11.2230  0.00  0.00     0.000 O
ATOM     88  @S  IDS B   5     -21.442  52.801  10.8520  0.00  0.00     0.000 S
ATOM     89   O  IDS B   5     -21.546  52.881   9.4390  0.00  0.00     0.000 OA
ATOM     90   O  IDS B   5     -21.019  51.534  11.3350  0.00  0.00     0.000 OA
ATOM     91   O  IDS B   5     -22.604  53.267  11.5230  0.00  0.00     0.000 OA
ENDBRANCH 80 87
BRANCH 83 92
ATOM     92 @CA  IDS B   5     -19.270  57.040  14.5950  0.00  0.00     0.000 C
ATOM     93   O  IDS B   5     -18.171  57.491  14.9260  0.00  0.00     0.000 OA
ATOM     94   O  IDS B   5     -20.153  56.948  15.4560  0.00  0.00     0.000 OA
ENDBRANCH 83 92
BRANCH 79 95
ATOM     95  O4  SGN B   6     -21.434  57.109  11.0650  0.00  0.00     0.000 O
BRANCH 95 99
ATOM     96  C1  SGN B   6     -24.658  59.164   9.4550  0.00  0.00     0.000 C
ATOM     97  C2  SGN B   6     -24.782  58.775  10.9230  0.00  0.00     0.000 C
ATOM     98  C3  SGN B   6     -23.359  58.560  11.4390  0.00  0.00     0.000 C
ATOM     99  C4  SGN B   6     -22.768  57.352  10.6580  0.00  0.00     0.000 C
ATOM    100  C5  SGN B   6     -22.770  57.751   9.1540  0.00  0.00     0.000 C
ATOM    101  O5  SGN B   6     -24.077  58.109   8.7130  0.00  0.00     0.000 O
BRANCH 97 104
ATOM    102   N  SGN B   6     -26.184  58.423  11.1660  0.00  0.00     0.000 N
ATOM    104  HD  SGN B   6     -26.699  58.935  10.6920  0.00  0.00     0.000 HD
ATOM    104 @NS  SGN B   6     -27.151  59.567  11.8790  0.00  0.00     0.000 S
ATOM    105   O  SGN B   6     -26.348  60.753  12.0870  0.00  0.00     0.000 OA
ATOM    106   O  SGN B   6     -28.252  59.805  10.9740  0.00  0.00     0.000 OA
ATOM    107   O  SGN B   6     -27.583  58.998  13.1360  0.00  0.00     0.000 OA
ENDBRANCH 97 104
BRANCH 100 108
ATOM    108   C  SGN B   6     -22.275  56.690   8.1790  0.00  0.00     0.000 C
ATOM    109   O  SGN B   6     -20.935  56.954   7.8430  0.00  0.00     0.000 O
ATOM    110  @S  SGN B   6     -20.049  56.106   6.8610  0.00  0.00     0.000 S
ATOM    111   O  SGN B   6     -20.911  55.742   5.7620  0.00  0.00     0.000 OA
ATOM    112   O  SGN B   6     -18.959  56.971   6.4390  0.00  0.00     0.000 OA
ATOM    113   O  SGN B   6     -19.604  54.962   7.6240  0.00  0.00     0.000 OA
ENDBRANCH 100 108
ENDBRANCH 95 99
ENDBRANCH 79 95
ENDBRANCH 78 82
ENDBRANCH 58 78
ENDBRANCH 57 61
ENDBRANCH 41 57
ENDBRANCH 40 44
ENDBRANCH 20 40
ENDBRANCH 19 23
ENDBRANCH 1 19
TORSDOF 22
ENDMDL
MODEL 37
REMARK VINA RESULT:       1.8      2.993      6.434
ROOT
ATOM      1  C1  IDS B   1     -24.541  54.398   9.6040  0.00  0.00     0.000 C
ATOM      2  C2  IDS B   1     -25.582  53.395  10.0250  0.00  0.00     0.000 C
ATOM      3  C3  IDS B   1     -26.735  53.938  10.9020  0.00  0.00     0.000 C
ATOM      4  C4  IDS B   1     -27.053  55.461  10.6580  0.00  0.00     0.000 C
ATOM      5  C5  IDS B   1     -25.815  56.260  10.1830  0.00  0.00     0.000 C
ATOM      6  O5  IDS B   1     -25.171  55.576   9.1410  0.00  0.00     0.000 O
ATOM      7   O  IDS B   1     -26.380  53.701  12.2610  0.00  0.00     0.000 O
ATOM      9  HD  IDS B   1     -26.943  54.359  12.2190  0.00  0.00     0.000 HD
ATOM      9   O  IDS B   1     -28.034  55.538   9.6490  0.00  0.00     0.000 O
ATOM     11  HD  IDS B   1     -28.596  56.195   9.6070  0.00  0.00     0.000 HD
ENDROOT
BRANCH 2 11
ATOM     11   O  IDS B   1     -26.173  52.836   8.9030  0.00  0.00     0.000 O
ATOM     12  @S  IDS B   1     -26.694  51.388   8.8210  0.00  0.00     0.000 S
ATOM     13   O  IDS B   1     -25.890  50.676   9.7940  0.00  0.00     0.000 OA
ATOM     14   O  IDS B   1     -28.099  51.430   9.1830  0.00  0.00     0.000 OA
ATOM     15   O  IDS B   1     -26.478  50.967   7.4510  0.00  0.00     0.000 OA
ENDBRANCH 2 11
BRANCH 5 16
ATOM     16 @CA  IDS B   1     -26.055  57.710   9.7750  0.00  0.00     0.000 C
ATOM     17   O  IDS B   1     -27.086  58.057   9.2040  0.00  0.00     0.000 OA
ATOM     18   O  IDS B   1     -25.218  58.574  10.0250  0.00  0.00     0.000 OA
ENDBRANCH 5 16
BRANCH 1 19
ATOM     19  O4  SGN B   2     -23.720  54.672  10.7200  0.00  0.00     0.000 O
BRANCH 19 23
ATOM     20  C1  SGN B   2     -19.716  55.466  11.0230  0.00  0.00     0.000 C
ATOM     21  C2  SGN B   2     -20.670  56.618  10.7960  0.00  0.00     0.000 C
ATOM     22  C3  SGN B   2     -22.022  56.244  11.2870  0.00  0.00     0.000 C
ATOM     23  C4  SGN B   2     -22.438  55.084  10.4120  0.00  0.00     0.000 C
ATOM     24  C5  SGN B   2     -21.504  53.977  10.7600  0.00  0.00     0.000 C
ATOM     25  O5  SGN B   2     -20.224  54.315  10.3640  0.00  0.00     0.000 O
ATOM     26   O  SGN B   2     -22.886  57.311  11.1180  0.00  0.00     0.000 O
ATOM     28  HD  SGN B   2     -23.494  57.874  10.8660  0.00  0.00     0.000 HD
BRANCH 21 30
ATOM     28   N  SGN B   2     -20.526  58.042  10.8740  0.00  0.00     0.000 N
ATOM     30  HD  SGN B   2     -20.741  58.240  10.0580  0.00  0.00     0.000 HD
ATOM     30 @NS  SGN B   2     -19.040  58.648  10.6180  0.00  0.00     0.000 S
ATOM     31   O  SGN B   2     -18.172  57.598  10.2010  0.00  0.00     0.000 OA
ATOM     32   O  SGN B   2     -19.239  59.589   9.5940  0.00  0.00     0.000 OA
ATOM     33   O  SGN B   2     -18.619  59.199  11.8500  0.00  0.00     0.000 OA
ENDBRANCH 21 30
BRANCH 24 34
ATOM     34   C  SGN B   2     -21.813  52.665  10.1370  0.00  0.00     0.000 C
ATOM     35   O  SGN B   2     -20.990  51.721  10.7240  0.00  0.00     0.000 O
ATOM     36  @S  SGN B   2     -21.148  50.220  10.5120  0.00  0.00     0.000 S
ATOM     37   O  SGN B   2     -20.293  49.928   9.3780  0.00  0.00     0.000 OA
ATOM     38   O  SGN B   2     -20.725  49.580  11.7360  0.00  0.00     0.000 OA
ATOM     39   O  SGN B   2     -22.566  50.019  10.2470  0.00  0.00     0.000 OA
ENDBRANCH 24 34
BRANCH 20 40
ATOM     40  O4  IDS B   3     -19.546  55.234  12.3880  0.00  0.00     0.000 O
BRANCH 40 44
ATOM     41  C1  IDS B   3     -17.969  54.655  15.4670  0.00  0.00     0.000 C
ATOM     42  C2  IDS B   3     -18.992  55.779  15.3190  0.00  0.00     0.000 C
ATOM     43  C3  IDS B   3     -18.818  56.680  14.0820  0.00  0.00     0.000 C
ATOM     44  C4  IDS B   3     -18.408  55.866  12.8710  0.00  0.00     0.000 C
ATOM     45  C5  IDS B   3     -17.331  54.825  13.2120  0.00  0.00     0.000 C
ATOM     46  O5  IDS B   3     -17.770  53.995  14.2250  0.00  0.00     0.000 O
ATOM     47   O  IDS B   3     -17.809  57.635  14.3360  0.00  0.00     0.000 O
ATOM     49  HD  IDS B   3     -18.521  57.319  13.9590  0.00  0.00     0.000 HD
BRANCH 42 49
ATOM     49   O  IDS B   3     -20.268  55.211  15.2390  0.00  0.00     0.000 O
ATOM     50   O  IDS B   3     -21.102  56.734  16.8300  0.00  0.00     0.000 OA
ATOM     51   O  IDS B   3     -22.459  56.139  14.9840  0.00  0.00     0.000 OA
ATOM     52   O  IDS B   3     -21.971  54.554  16.6640  0.00  0.00     0.000 OA
ATOM     53  @S  IDS B   3     -21.525  55.691  15.9690  0.00  0.00     0.000 S
ENDBRANCH 42 49
BRANCH 45 54
ATOM     54 @CA  IDS B   3     -16.837  53.985  12.0370  0.00  0.00     0.000 C
ATOM     55   O  IDS B   3     -15.940  54.356  11.3290  0.00  0.00     0.000 OA
ATOM     56   O  IDS B   3     -17.310  52.924  11.7960  0.00  0.00     0.000 OA
ENDBRANCH 45 54
BRANCH 41 57
ATOM     57  O4  SGN B   4     -16.780  55.170  15.9700  0.00  0.00     0.000 O
BRANCH 57 61
ATOM     58  C1  SGN B   4     -15.425  51.494  17.2530  0.00  0.00     0.000 C
ATOM     59  C2  SGN B   4     -16.231  52.287  18.2680  0.00  0.00     0.000 C
ATOM     60  C3  SGN B   4     -16.987  53.410  17.5650  0.00  0.00     0.000 C
ATOM     61  C4  SGN B   4     -16.031  54.302  16.7640  0.00  0.00     0.000 C
ATOM     62  C5  SGN B   4     -15.210  53.401  15.8460  0.00  0.00     0.000 C
ATOM     63  O5  SGN B   4     -14.552  52.384  16.5780  0.00  0.00     0.000 O
ATOM     64   O  SGN B   4     -17.631  54.204  18.5390  0.00  0.00     0.000 O
ATOM     66  HD  SGN B   4     -17.404  55.040  18.5670  0.00  0.00     0.000 HD
BRANCH 59 68
ATOM     66   N  SGN B   4     -16.036  51.811  19.6220  0.00  0.00     0.000 N
ATOM     68  HD  SGN B   4     -15.557  51.921  18.9100  0.00  0.00     0.000 HD
ATOM     68 @NS  SGN B   4     -16.592  50.331  20.0600  0.00  0.00     0.000 S
ATOM     69   O  SGN B   4     -17.848  50.111  19.4060  0.00  0.00     0.000 OA
ATOM     70   O  SGN B   4     -15.604  49.388  19.6210  0.00  0.00     0.000 OA
ATOM     71   O  SGN B   4     -16.714  50.405  21.4840  0.00  0.00     0.000 OA
ENDBRANCH 59 68
BRANCH 62 72
ATOM     72   C  SGN B   4     -14.131  54.158  15.0850  0.00  0.00     0.000 C
ATOM     73   O  SGN B   4     -13.140  53.215  14.8040  0.00  0.00     0.000 O
ATOM     74  @S  SGN B   4     -12.202  53.178  13.5850  0.00  0.00     0.000 S
ATOM     75   O  SGN B   4     -11.480  54.397  13.5700  0.00  0.00     0.000 OA
ATOM     76   O  SGN B   4     -11.356  52.049  13.8270  0.00  0.00     0.000 OA
ATOM     77   O  SGN B   4     -13.049  53.063  12.4460  0.00  0.00     0.000 OA
ENDBRANCH 62 72
BRANCH 58 78
ATOM     78  O4  IDS B   5     -16.291  50.815  16.3670  0.00  0.00     0.000 O
BRANCH 78 82
ATOM     79  C1  IDS B   5     -18.166  48.668  14.4000  0.00  0.00     0.000 C
ATOM     80  C2  IDS B   5     -18.377  48.674  15.8830  0.00  0.00     0.000 C
ATOM     81  C3  IDS B   5     -17.086  48.560  16.6890  0.00  0.00     0.000 C
ATOM     82  C4  IDS B   5     -15.984  49.454  16.1590  0.00  0.00     0.000 C
ATOM     83  C5  IDS B   5     -15.870  49.205  14.6890  0.00  0.00     0.000 C
ATOM     84  O5  IDS B   5     -17.094  49.528  14.0580  0.00  0.00     0.000 O
ATOM     85   O  IDS B   5     -16.638  47.229  16.5960  0.00  0.00     0.000 O
ATOM     87  HD  IDS B   5     -16.204  47.957  16.4190  0.00  0.00     0.000 HD
BRANCH 80 87
ATOM     87   O  IDS B   5     -18.960  49.868  16.2290  0.00  0.00     0.000 O
ATOM     88  @S  IDS B   5     -20.418  50.098  16.6330  0.00  0.00     0.000 S
ATOM     89   O  IDS B   5     -20.659  49.175  17.6840  0.00  0.00     0.000 OA
ATOM     90   O  IDS B   5     -20.491  51.461  17.0260  0.00  0.00     0.000 OA
ATOM     91   O  IDS B   5     -21.194  49.835  15.4720  0.00  0.00     0.000 OA
ENDBRANCH 80 87
BRANCH 83 92
ATOM     92 @CA  IDS B   5     -14.675  49.894  14.0410  0.00  0.00     0.000 C
ATOM     93   O  IDS B   5     -13.523  49.635  14.3960  0.00  0.00     0.000 OA
ATOM     94   O  IDS B   5     -14.842  50.733  13.1470  0.00  0.00     0.000 OA
ENDBRANCH 83 92
BRANCH 79 95
ATOM     95  O4  SGN B   6     -17.953  47.365  13.9670  0.00  0.00     0.000 O
BRANCH 95 99
ATOM     96  C1  SGN B   6     -17.856  45.398  10.3160  0.00  0.00     0.000 C
ATOM     97  C2  SGN B   6     -16.860  46.539  10.4840  0.00  0.00     0.000 C
ATOM     98  C3  SGN B   6     -16.672  46.735  11.9890  0.00  0.00     0.000 C
ATOM     99  C4  SGN B   6     -18.044  47.190  12.5650  0.00  0.00     0.000 C
ATOM    100  C5  SGN B   6     -19.053  46.044  12.2660  0.00  0.00     0.000 C
ATOM    101  O5  SGN B   6     -19.108  45.750  10.8730  0.00  0.00     0.000 O
BRANCH 97 104
ATOM    102   N  SGN B   6     -15.570  46.345   9.8160  0.00  0.00     0.000 N
ATOM    104  HD  SGN B   6     -15.226  47.114   9.6180  0.00  0.00     0.000 HD
ATOM    104 @NS  SGN B   6     -15.438  46.847   8.2400  0.00  0.00     0.000 S
ATOM    105   O  SGN B   6     -16.703  47.438   7.8600  0.00  0.00     0.000 OA
ATOM    106   O  SGN B   6     -14.355  47.802   8.1970  0.00  0.00     0.000 OA
ATOM    107   O  SGN B   6     -15.158  45.659   7.4640  0.00  0.00     0.000 OA
ENDBRANCH 97 104
BRANCH 100 108
ATOM    108   C  SGN B   6     -20.493  46.289  12.7000  0.00  0.00     0.000 C
ATOM    109   O  SGN B   6     -21.354  46.054  11.6140  0.00  0.00     0.000 O
ATOM    110  @S  SGN B   6     -22.919  46.199  11.6340  0.00  0.00     0.000 S
ATOM    111   O  SGN B   6     -23.198  47.382  12.4110  0.00  0.00     0.000 OA
ATOM    112   O  SGN B   6     -23.336  46.343  10.2480  0.00  0.00     0.000 OA
ATOM    113   O  SGN B   6     -23.416  44.992  12.2550  0.00  0.00     0.000 OA
ENDBRANCH 100 108
ENDBRANCH 95 99
ENDBRANCH 79 95
ENDBRANCH 78 82
ENDBRANCH 58 78
ENDBRANCH 57 61
ENDBRANCH 41 57
ENDBRANCH 40 44
ENDBRANCH 20 40
ENDBRANCH 19 23
ENDBRANCH 1 19
TORSDOF 22
ENDMDL
MODEL 38
REMARK VINA RESULT:       1.9      4.300      7.814
ROOT
ATOM      1  C1  IDS B   1     -12.127  59.096  15.0490  0.00  0.00     0.000 C
ATOM      2  C2  IDS B   1     -13.043  60.129  15.6510  0.00  0.00     0.000 C
ATOM      3  C3  IDS B   1     -13.135  60.139  17.1960  0.00  0.00     0.000 C
ATOM      4  C4  IDS B   1     -11.833  59.618  17.9110  0.00  0.00     0.000 C
ATOM      5  C5  IDS B   1     -11.048  58.598  17.0510  0.00  0.00     0.000 C
ATOM      6  O5  IDS B   1     -10.897  59.084  15.7450  0.00  0.00     0.000 O
ATOM      7   O  IDS B   1     -14.266  59.353  17.5560  0.00  0.00     0.000 O
ATOM      9  HD  IDS B   1     -13.706  59.375  18.2170  0.00  0.00     0.000 HD
ATOM      9   O  IDS B   1     -10.995  60.729  18.1400  0.00  0.00     0.000 O
ATOM     11  HD  IDS B   1     -10.436  60.751  18.8010  0.00  0.00     0.000 HD
ENDROOT
BRANCH 2 11
ATOM     11   O  IDS B   1     -12.627  61.397  15.2750  0.00  0.00     0.000 O
ATOM     12  @S  IDS B   1     -13.396  62.313  14.3040  0.00  0.00     0.000 S
ATOM     13   O  IDS B   1     -14.143  61.390  13.4740  0.00  0.00     0.000 OA
ATOM     14   O  IDS B   1     -14.256  63.153  15.1180  0.00  0.00     0.000 OA
ATOM     15   O  IDS B   1     -12.386  63.068  13.5890  0.00  0.00     0.000 OA
ENDBRANCH 2 11
BRANCH 5 16
ATOM     16 @CA  IDS B   1      -9.694  58.148  17.5930  0.00  0.00     0.000 C
ATOM     17   O  IDS B   1      -9.362  58.362  18.7570  0.00  0.00     0.000 OA
ATOM     18   O  IDS B   1      -8.904  57.543  16.8730  0.00  0.00     0.000 OA
ENDBRANCH 5 16
BRANCH 1 19
ATOM     19  O4  SGN B   2     -12.767  57.840  15.1360  0.00  0.00     0.000 O
BRANCH 19 23
ATOM     20  C1  SGN B   2     -13.293  54.776  12.4740  0.00  0.00     0.000 C
ATOM     21  C2  SGN B   2     -11.900  55.059  12.9900  0.00  0.00     0.000 C
ATOM     22  C3  SGN B   2     -11.990  55.747  14.3040  0.00  0.00     0.000 C
ATOM     23  C4  SGN B   2     -12.675  57.060  13.9990  0.00  0.00     0.000 C
ATOM     24  C5  SGN B   2     -14.056  56.692  13.5810  0.00  0.00     0.000 C
ATOM     25  O5  SGN B   2     -14.006  56.002  12.3860  0.00  0.00     0.000 O
ATOM     26   O  SGN B   2     -10.716  55.970  14.7970  0.00  0.00     0.000 O
ATOM     28  HD  SGN B   2      -9.953  56.291  15.0520  0.00  0.00     0.000 HD
BRANCH 21 30
ATOM     28   N  SGN B   2     -11.906  53.849  12.2200  0.00  0.00     0.000 N
ATOM     30  HD  SGN B   2     -11.869  53.280  12.8710  0.00  0.00     0.000 HD
ATOM     30 @NS  SGN B   2     -10.470  53.311  11.6820  0.00  0.00     0.000 S
ATOM     31   O  SGN B   2      -9.431  54.111  12.2390  0.00  0.00     0.000 OA
ATOM     32   O  SGN B   2     -10.413  51.990  12.1570  0.00  0.00     0.000 OA
ATOM     33   O  SGN B   2     -10.505  53.429  10.2730  0.00  0.00     0.000 OA
ENDBRANCH 21 30
BRANCH 24 34
ATOM     34   C  SGN B   2     -14.984  57.833  13.3790  0.00  0.00     0.000 C
ATOM     35   O  SGN B   2     -15.483  57.741  12.0910  0.00  0.00     0.000 O
ATOM     36  @S  SGN B   2     -16.627  58.603  11.5700  0.00  0.00     0.000 S
ATOM     37   O  SGN B   2     -15.970  59.756  10.9890  0.00  0.00     0.000 OA
ATOM     38   O  SGN B   2     -17.346  57.800  10.6080  0.00  0.00     0.000 OA
ATOM     39   O  SGN B   2     -17.435  58.913  12.7420  0.00  0.00     0.000 OA
ENDBRANCH 24 34
BRANCH 20 40
ATOM     40  O4  IDS B   3     -13.948  53.868  13.3060  0.00  0.00     0.000 O
BRANCH 40 44
ATOM     41  C1  IDS B   3     -16.138  51.129  13.3650  0.00  0.00     0.000 C
ATOM     42  C2  IDS B   3     -15.553  51.626  12.0440  0.00  0.00     0.000 C
ATOM     43  C3  IDS B   3     -15.612  53.149  11.8210  0.00  0.00     0.000 C
ATOM     44  C4  IDS B   3     -15.322  53.898  13.1060  0.00  0.00     0.000 C
ATOM     45  C5  IDS B   3     -16.043  53.276  14.3120  0.00  0.00     0.000 C
ATOM     46  O5  IDS B   3     -15.700  51.944  14.4420  0.00  0.00     0.000 O
ATOM     47   O  IDS B   3     -16.906  53.508  11.3820  0.00  0.00     0.000 O
ATOM     49  HD  IDS B   3     -16.048  53.592  11.4680  0.00  0.00     0.000 HD
BRANCH 42 49
ATOM     49   O  IDS B   3     -14.206  51.252  11.9860  0.00  0.00     0.000 O
ATOM     50   O  IDS B   3     -14.705  49.499  10.4950  0.00  0.00     0.000 OA
ATOM     51   O  IDS B   3     -12.725  50.755  10.1740  0.00  0.00     0.000 OA
ATOM     52   O  IDS B   3     -12.936  49.317  12.0340  0.00  0.00     0.000 OA
ATOM     53  @S  IDS B   3     -13.608  50.143  11.1170  0.00  0.00     0.000 S
ENDBRANCH 42 49
BRANCH 45 54
ATOM     54 @CA  IDS B   3     -15.829  53.994  15.6430  0.00  0.00     0.000 C
ATOM     55   O  IDS B   3     -15.271  53.461  16.5640  0.00  0.00     0.000 OA
ATOM     56   O  IDS B   3     -16.187  55.113  15.8050  0.00  0.00     0.000 OA
ENDBRANCH 45 54
BRANCH 41 57
ATOM     57  O4  SGN B   4     -17.524  51.094  13.2770  0.00  0.00     0.000 O
BRANCH 57 61
ATOM     58  C1  SGN B   4     -20.621  48.376  13.1380  0.00  0.00     0.000 C
ATOM     59  C2  SGN B   4     -19.681  48.240  14.3250  0.00  0.00     0.000 C
ATOM     60  C3  SGN B   4     -18.845  49.508  14.4700  0.00  0.00     0.000 C
ATOM     61  C4  SGN B   4     -18.093  49.826  13.1720  0.00  0.00     0.000 C
ATOM     62  C5  SGN B   4     -19.111  49.849  12.0350  0.00  0.00     0.000 C
ATOM     63  O5  SGN B   4     -19.848  48.641  11.9800  0.00  0.00     0.000 O
ATOM     64   O  SGN B   4     -17.899  49.313  15.5010  0.00  0.00     0.000 O
ATOM     66  HD  SGN B   4     -17.065  49.378  15.2750  0.00  0.00     0.000 HD
BRANCH 59 68
ATOM     66   N  SGN B   4     -20.059  46.868  14.5970  0.00  0.00     0.000 N
ATOM     68  HD  SGN B   4     -20.213  47.464  13.9870  0.00  0.00     0.000 HD
ATOM     68 @NS  SGN B   4     -21.157  46.536  15.7690  0.00  0.00     0.000 S
ATOM     69   O  SGN B   4     -20.937  47.440  16.8600  0.00  0.00     0.000 OA
ATOM     70   O  SGN B   4     -22.447  46.739  15.1760  0.00  0.00     0.000 OA
ATOM     71   O  SGN B   4     -20.900  45.172  16.1190  0.00  0.00     0.000 OA
ENDBRANCH 59 68
BRANCH 62 72
ATOM     72   C  SGN B   4     -18.468  50.030  10.6690  0.00  0.00     0.000 C
ATOM     73   O  SGN B   4     -18.063  48.753  10.2730  0.00  0.00     0.000 O
ATOM     74  @S  SGN B   4     -17.981  48.200   8.8400  0.00  0.00     0.000 S
ATOM     75   O  SGN B   4     -17.102  49.039   8.1120  0.00  0.00     0.000 OA
ATOM     76   O  SGN B   4     -17.457  46.877   9.0040  0.00  0.00     0.000 OA
ATOM     77   O  SGN B   4     -19.306  48.262   8.3230  0.00  0.00     0.000 OA
ENDBRANCH 62 72
BRANCH 58 78
ATOM     78  O4  IDS B   5     -21.578  49.386  13.3880  0.00  0.00     0.000 O
BRANCH 78 82
ATOM     79  C1  IDS B   5     -24.316  51.467  13.7930  0.00  0.00     0.000 C
ATOM     80  C2  IDS B   5     -24.241  50.194  14.5800  0.00  0.00     0.000 C
ATOM     81  C3  IDS B   5     -23.929  48.964  13.7330  0.00  0.00     0.000 C
ATOM     82  C4  IDS B   5     -22.816  49.208  12.7340  0.00  0.00     0.000 C
ATOM     83  C5  IDS B   5     -23.149  50.459  11.9860  0.00  0.00     0.000 C
ATOM     84  O5  IDS B   5     -23.228  51.545  12.8900  0.00  0.00     0.000 O
ATOM     85   O  IDS B   5     -25.089  48.636  13.0070  0.00  0.00     0.000 O
ATOM     87  HD  IDS B   5     -24.287  48.773  12.7090  0.00  0.00     0.000 HD
BRANCH 80 87
ATOM     87   O  IDS B   5     -23.228  50.316  15.4980  0.00  0.00     0.000 O
ATOM     88  @S  IDS B   5     -23.349  50.226  17.0210  0.00  0.00     0.000 S
ATOM     89   O  IDS B   5     -24.012  48.997  17.2660  0.00  0.00     0.000 OA
ATOM     90   O  IDS B   5     -22.015  50.278  17.5090  0.00  0.00     0.000 OA
ATOM     91   O  IDS B   5     -24.108  51.359  17.4220  0.00  0.00     0.000 OA
ENDBRANCH 80 87
BRANCH 83 92
ATOM     92 @CA  IDS B   5     -22.217  50.739  10.8130  0.00  0.00     0.000 C
ATOM     93   O  IDS B   5     -21.652  51.830  10.6970  0.00  0.00     0.000 OA
ATOM     94   O  IDS B   5     -22.013  49.876   9.9510  0.00  0.00     0.000 OA
ENDBRANCH 83 92
BRANCH 79 95
ATOM     95  O4  SGN B   6     -25.543  51.540  13.1450  0.00  0.00     0.000 O
BRANCH 95 99
ATOM     96  C1  SGN B   6     -27.554  54.403  10.9170  0.00  0.00     0.000 C
ATOM     97  C2  SGN B   6     -26.430  53.667  10.1970  0.00  0.00     0.000 C
ATOM     98  C3  SGN B   6     -26.220  52.351  10.9470  0.00  0.00     0.000 C
ATOM     99  C4  SGN B   6     -25.733  52.715  12.3790  0.00  0.00     0.000 C
ATOM    100  C5  SGN B   6     -26.863  53.564  13.0300  0.00  0.00     0.000 C
ATOM    101  O5  SGN B   6     -27.172  54.710  12.2430  0.00  0.00     0.000 O
BRANCH 97 104
ATOM    102   N  SGN B   6     -26.233  54.844   9.3450  0.00  0.00     0.000 N
ATOM    104  HD  SGN B   6     -26.933  54.965   8.8500  0.00  0.00     0.000 HD
ATOM    104 @NS  SGN B   6     -26.177  54.604   7.7040  0.00  0.00     0.000 S
ATOM    105   O  SGN B   6     -26.383  53.193   7.4590  0.00  0.00     0.000 OA
ATOM    106   O  SGN B   6     -27.223  55.417   7.1290  0.00  0.00     0.000 OA
ATOM    107   O  SGN B   6     -24.858  55.022   7.2840  0.00  0.00     0.000 OA
ENDBRANCH 97 104
BRANCH 100 108
ATOM    108   C  SGN B   6     -26.585  54.082  14.4360  0.00  0.00     0.000 C
ATOM    109   O  SGN B   6     -25.371  54.792  14.4400  0.00  0.00     0.000 O
ATOM    110  @S  SGN B   6     -24.715  55.484  15.6890  0.00  0.00     0.000 S
ATOM    111   O  SGN B   6     -24.916  54.579  16.7960  0.00  0.00     0.000 OA
ATOM    112   O  SGN B   6     -23.306  55.655  15.3710  0.00  0.00     0.000 OA
ATOM    113   O  SGN B   6     -25.416  56.737  15.8560  0.00  0.00     0.000 OA
ENDBRANCH 100 108
ENDBRANCH 95 99
ENDBRANCH 79 95
ENDBRANCH 78 82
ENDBRANCH 58 78
ENDBRANCH 57 61
ENDBRANCH 41 57
ENDBRANCH 40 44
ENDBRANCH 20 40
ENDBRANCH 19 23
ENDBRANCH 1 19
TORSDOF 22
ENDMDL
MODEL 39
REMARK VINA RESULT:       1.9      3.276      9.466
ROOT
ATOM      1  C1  IDS B   1     -26.894  55.739  10.8010  0.00  0.00     0.000 C
ATOM      2  C2  IDS B   1     -26.801  56.769  11.8950  0.00  0.00     0.000 C
ATOM      3  C3  IDS B   1     -25.660  57.805  11.7590  0.00  0.00     0.000 C
ATOM      4  C4  IDS B   1     -25.234  58.086  10.2700  0.00  0.00     0.000 C
ATOM      5  C5  IDS B   1     -25.480  56.874   9.3400  0.00  0.00     0.000 C
ATOM      6  O5  IDS B   1     -26.772  56.366   9.5410  0.00  0.00     0.000 O
ATOM      7   O  IDS B   1     -24.559  57.323  12.5230  0.00  0.00     0.000 O
ATOM      9  HD  IDS B   1     -24.271  57.860  11.9080  0.00  0.00     0.000 HD
ATOM      9   O  IDS B   1     -26.014  59.162   9.7970  0.00  0.00     0.000 O
ATOM     11  HD  IDS B   1     -25.727  59.700   9.1820  0.00  0.00     0.000 HD
ENDROOT
BRANCH 2 11
ATOM     11   O  IDS B   1     -27.982  57.492  11.9560  0.00  0.00     0.000 O
ATOM     12  @S  IDS B   1     -29.081  57.280  13.0150  0.00  0.00     0.000 S
ATOM     13   O  IDS B   1     -28.920  55.895  13.4090  0.00  0.00     0.000 OA
ATOM     14   O  IDS B   1     -28.798  58.204  14.0990  0.00  0.00     0.000 OA
ATOM     15   O  IDS B   1     -30.335  57.564  12.3460  0.00  0.00     0.000 OA
ENDBRANCH 2 11
BRANCH 5 16
ATOM     16 @CA  IDS B   1     -25.241  57.098   7.8500  0.00  0.00     0.000 C
ATOM     17   O  IDS B   1     -26.088  57.625   7.1330  0.00  0.00     0.000 OA
ATOM     18   O  IDS B   1     -24.178  56.763   7.3320  0.00  0.00     0.000 OA
ENDBRANCH 5 16
BRANCH 1 19
ATOM     19  O4  SGN B   2     -25.859  54.798  10.9970  0.00  0.00     0.000 O
BRANCH 19 23
ATOM     20  C1  SGN B   2     -25.864  50.986  12.4900  0.00  0.00     0.000 C
ATOM     21  C2  SGN B   2     -27.017  51.425  11.6140  0.00  0.00     0.000 C
ATOM     22  C3  SGN B   2     -26.574  52.540  10.7360  0.00  0.00     0.000 C
ATOM     23  C4  SGN B   2     -26.229  53.661  11.6900  0.00  0.00     0.000 C
ATOM     24  C5  SGN B   2     -25.041  53.178  12.4480  0.00  0.00     0.000 C
ATOM     25  O5  SGN B   2     -25.406  52.104  13.2370  0.00  0.00     0.000 O
ATOM     26   O  SGN B   2     -27.616  52.915   9.9060  0.00  0.00     0.000 O
ATOM     28  HD  SGN B   2     -28.280  53.301   9.5050  0.00  0.00     0.000 HD
BRANCH 21 30
ATOM     28   N  SGN B   2     -27.132  50.038  11.9570  0.00  0.00     0.000 N
ATOM     30  HD  SGN B   2     -26.800  49.697  11.2330  0.00  0.00     0.000 HD
ATOM     30 @NS  SGN B   2     -28.551  49.315  11.6350  0.00  0.00     0.000 S
ATOM     31   O  SGN B   2     -29.381  50.214  10.9060  0.00  0.00     0.000 OA
ATOM     32   O  SGN B   2     -28.186  48.204  10.8560  0.00  0.00     0.000 OA
ATOM     33   O  SGN B   2     -29.124  48.993  12.8870  0.00  0.00     0.000 OA
ENDBRANCH 21 30
BRANCH 24 34
ATOM     34   C  SGN B   2     -24.412  54.177  13.3470  0.00  0.00     0.000 C
ATOM     35   O  SGN B   2     -25.264  54.367  14.4210  0.00  0.00     0.000 O
ATOM     36  @S  SGN B   2     -24.881  55.155  15.6680  0.00  0.00     0.000 S
ATOM     37   O  SGN B   2     -25.310  56.509  15.3800  0.00  0.00     0.000 OA
ATOM     38   O  SGN B   2     -25.584  54.548  16.7740  0.00  0.00     0.000 OA
ATOM     39   O  SGN B   2     -23.437  55.006  15.7850  0.00  0.00     0.000 OA
ENDBRANCH 24 34
BRANCH 20 40
ATOM     40  O4  IDS B   3     -24.841  50.442  11.7140  0.00  0.00     0.000 O
BRANCH 40 44
ATOM     41  C1  IDS B   3     -22.393  47.938  11.5020  0.00  0.00     0.000 C
ATOM     42  C2  IDS B   3     -23.472  47.879  12.5820  0.00  0.00     0.000 C
ATOM     43  C3  IDS B   3     -23.720  49.192  13.3490  0.00  0.00     0.000 C
ATOM     44  C4  IDS B   3     -23.646  50.386  12.4190  0.00  0.00     0.000 C
ATOM     45  C5  IDS B   3     -22.463  50.286  11.4430  0.00  0.00     0.000 C
ATOM     46  O5  IDS B   3     -22.538  49.113  10.7170  0.00  0.00     0.000 O
ATOM     47   O  IDS B   3     -22.733  49.345  14.3460  0.00  0.00     0.000 O
ATOM     49  HD  IDS B   3     -23.507  49.459  13.9760  0.00  0.00     0.000 HD
BRANCH 42 49
ATOM     49   O  IDS B   3     -24.683  47.517  11.9810  0.00  0.00     0.000 O
ATOM     50   O  IDS B   3     -24.329  45.251  12.5140  0.00  0.00     0.000 OA
ATOM     51   O  IDS B   3     -26.513  46.146  12.6860  0.00  0.00     0.000 OA
ATOM     52   O  IDS B   3     -25.500  45.873  10.5710  0.00  0.00     0.000 OA
ATOM     53  @S  IDS B   3     -25.294  46.114  11.9400  0.00  0.00     0.000 S
ENDBRANCH 42 49
BRANCH 45 54
ATOM     54 @CA  IDS B   3     -22.297  51.469  10.4930  0.00  0.00     0.000 C
ATOM     55   O  IDS B   3     -22.197  51.315   9.3050  0.00  0.00     0.000 OA
ATOM     56   O  IDS B   3     -22.284  52.585  10.8940  0.00  0.00     0.000 OA
ENDBRANCH 45 54
BRANCH 41 57
ATOM     57  O4  SGN B   4     -21.138  47.867  12.0940  0.00  0.00     0.000 O
BRANCH 57 61
ATOM     58  C1  SGN B   4     -17.486  46.028  11.5650  0.00  0.00     0.000 C
ATOM     59  C2  SGN B   4     -17.986  46.845  10.3860  0.00  0.00     0.000 C
ATOM     60  C3  SGN B   4     -19.115  47.768  10.8370  0.00  0.00     0.000 C
ATOM     61  C4  SGN B   4     -20.242  46.974  11.5080  0.00  0.00     0.000 C
ATOM     62  C5  SGN B   4     -19.622  46.122  12.6120  0.00  0.00     0.000 C
ATOM     63  O5  SGN B   4     -18.580  45.307  12.1090  0.00  0.00     0.000 O
ATOM     64   O  SGN B   4     -19.642  48.428   9.7060  0.00  0.00     0.000 O
ATOM     66  HD  SGN B   4     -20.481  48.294   9.5380  0.00  0.00     0.000 HD
BRANCH 59 68
ATOM     66   N  SGN B   4     -17.299  46.479   9.1650  0.00  0.00     0.000 N
ATOM     68  HD  SGN B   4     -17.581  46.083   9.8820  0.00  0.00     0.000 HD
ATOM     68 @NS  SGN B   4     -15.718  46.864   8.9650  0.00  0.00     0.000 S
ATOM     69   O  SGN B   4     -15.493  48.157   9.5410  0.00  0.00     0.000 OA
ATOM     70   O  SGN B   4     -14.970  45.850   9.6510  0.00  0.00     0.000 OA
ATOM     71   O  SGN B   4     -15.526  46.850   7.5460  0.00  0.00     0.000 OA
ENDBRANCH 59 68
BRANCH 62 72
ATOM     72   C  SGN B   4     -20.625  45.189  13.2720  0.00  0.00     0.000 C
ATOM     73   O  SGN B   4     -20.520  45.434  14.6430  0.00  0.00     0.000 O
ATOM     74  @S  SGN B   4     -21.632  45.332  15.7010  0.00  0.00     0.000 S
ATOM     75   O  SGN B   4     -22.129  44.006  15.6650  0.00  0.00     0.000 OA
ATOM     76   O  SGN B   4     -20.971  45.631  16.9350  0.00  0.00     0.000 OA
ATOM     77   O  SGN B   4     -22.628  46.271  15.3090  0.00  0.00     0.000 OA
ENDBRANCH 62 72
BRANCH 58 78
ATOM     78  O4  IDS B   5     -16.873  46.872  12.5190  0.00  0.00     0.000 O
BRANCH 78 82
ATOM     79  C1  IDS B   5     -14.939  48.568  14.8370  0.00  0.00     0.000 C
ATOM     80  C2  IDS B   5     -14.562  48.624  13.3880  0.00  0.00     0.000 C
ATOM     81  C3  IDS B   5     -14.499  47.256  12.7140  0.00  0.00     0.000 C
ATOM     82  C4  IDS B   5     -15.675  46.372  13.0740  0.00  0.00     0.000 C
ATOM     83  C5  IDS B   5     -15.799  46.371  14.5640  0.00  0.00     0.000 C
ATOM     84  O5  IDS B   5     -16.034  47.690  15.0200  0.00  0.00     0.000 O
ATOM     85   O  IDS B   5     -13.330  46.612  13.1600  0.00  0.00     0.000 O
ATOM     87  HD  IDS B   5     -14.145  46.321  13.1770  0.00  0.00     0.000 HD
BRANCH 80 87
ATOM     87   O  IDS B   5     -15.517  49.354  12.7240  0.00  0.00     0.000 O
ATOM     88  @S  IDS B   5     -15.378  50.779  12.1850  0.00  0.00     0.000 S
ATOM     89   O  IDS B   5     -14.211  50.757  11.3810  0.00  0.00     0.000 OA
ATOM     90   O  IDS B   5     -16.578  51.030  11.4660  0.00  0.00     0.000 OA
ATOM     91   O  IDS B   5     -15.254  51.619  13.3250  0.00  0.00     0.000 OA
ENDBRANCH 80 87
BRANCH 83 92
ATOM     92 @CA  IDS B   5     -16.825  45.375  15.0930  0.00  0.00     0.000 C
ATOM     93   O  IDS B   5     -17.630  45.699  15.9700  0.00  0.00     0.000 OA
ATOM     94   O  IDS B   5     -16.865  44.220  14.6550  0.00  0.00     0.000 OA
ENDBRANCH 83 92
BRANCH 79 95
ATOM     95  O4  SGN B   6     -13.833  48.194  15.5890  0.00  0.00     0.000 O
BRANCH 95 99
ATOM     96  C1  SGN B   6     -12.649  48.556  19.5490  0.00  0.00     0.000 C
ATOM     97  C2  SGN B   6     -13.822  47.618  19.2870  0.00  0.00     0.000 C
ATOM     98  C3  SGN B   6     -13.731  47.206  17.8170  0.00  0.00     0.000 C
ATOM     99  C4  SGN B   6     -13.932  48.495  16.9700  0.00  0.00     0.000 C
ATOM    100  C5  SGN B   6     -12.780  49.466  17.3570  0.00  0.00     0.000 C
ATOM    101  O5  SGN B   6     -12.765  49.723  18.7580  0.00  0.00     0.000 O
BRANCH 97 104
ATOM    102   N  SGN B   6     -13.549  46.714  20.4080  0.00  0.00     0.000 N
ATOM    104  HD  SGN B   6     -14.126  46.068  20.4080  0.00  0.00     0.000 HD
ATOM    104 @NS  SGN B   6     -14.701  46.592  21.5950  0.00  0.00     0.000 S
ATOM    105   O  SGN B   6     -15.812  47.439  21.2180  0.00  0.00     0.000 OA
ATOM    106   O  SGN B   6     -15.077  45.199  21.6690  0.00  0.00     0.000 OA
ATOM    107   O  SGN B   6     -14.073  47.059  22.8110  0.00  0.00     0.000 OA
ENDBRANCH 97 104
BRANCH 100 108
ATOM    108   C  SGN B   6     -12.798  50.831  16.6800  0.00  0.00     0.000 C
ATOM    109   O  SGN B   6     -11.640  50.980  15.8960  0.00  0.00     0.000 O
ATOM    110  @S  SGN B   6     -11.266  52.242  15.0390  0.00  0.00     0.000 S
ATOM    111   O  SGN B   6     -11.634  53.387  15.8370  0.00  0.00     0.000 OA
ATOM    112   O  SGN B   6      -9.832  52.173  14.8100  0.00  0.00     0.000 OA
ATOM    113   O  SGN B   6     -12.042  52.135  13.8240  0.00  0.00     0.000 OA
ENDBRANCH 100 108
ENDBRANCH 95 99
ENDBRANCH 79 95
ENDBRANCH 78 82
ENDBRANCH 58 78
ENDBRANCH 57 61
ENDBRANCH 41 57
ENDBRANCH 40 44
ENDBRANCH 20 40
ENDBRANCH 19 23
ENDBRANCH 1 19
TORSDOF 22
ENDMDL
MODEL 40
REMARK VINA RESULT:       1.9      2.730      8.493
ROOT
ATOM      1  C1  IDS B   1     -28.285  51.378  10.4560  0.00  0.00     0.000 C
ATOM      2  C2  IDS B   1     -29.232  52.109  11.3710  0.00  0.00     0.000 C
ATOM      3  C3  IDS B   1     -28.893  53.591  11.6590  0.00  0.00     0.000 C
ATOM      4  C4  IDS B   1     -28.099  54.295  10.4960  0.00  0.00     0.000 C
ATOM      5  C5  IDS B   1     -27.236  53.305   9.6770  0.00  0.00     0.000 C
ATOM      6  O5  IDS B   1     -27.995  52.179   9.3280  0.00  0.00     0.000 O
ATOM      7   O  IDS B   1     -28.155  53.626  12.8760  0.00  0.00     0.000 O
ATOM      9  HD  IDS B   1     -27.970  54.329  12.4050  0.00  0.00     0.000 HD
ATOM      9   O  IDS B   1     -29.041  54.875   9.6230  0.00  0.00     0.000 O
ATOM     11  HD  IDS B   1     -28.857  55.578   9.1520  0.00  0.00     0.000 HD
ENDROOT
BRANCH 2 11
ATOM     11   O  IDS B   1     -30.507  52.097  10.8280  0.00  0.00     0.000 O
ATOM     12  @S  IDS B   1     -31.750  52.706  11.5070  0.00  0.00     0.000 S
ATOM     13   O  IDS B   1     -31.435  52.648  12.9200  0.00  0.00     0.000 OA
ATOM     14   O  IDS B   1     -31.867  54.067  11.0170  0.00  0.00     0.000 OA
ATOM     15   O  IDS B   1     -32.865  51.868  11.1140  0.00  0.00     0.000 OA
ENDBRANCH 2 11
BRANCH 5 16
ATOM     16 @CA  IDS B   1     -26.547  53.865   8.4360  0.00  0.00     0.000 C
ATOM     17   O  IDS B   1     -26.107  55.012   8.4060  0.00  0.00     0.000 OA
ATOM     18   O  IDS B   1     -26.403  53.169   7.4340  0.00  0.00     0.000 OA
ENDBRANCH 5 16
BRANCH 1 19
ATOM     19  O4  SGN B   2     -27.110  51.089  11.1840  0.00  0.00     0.000 O
BRANCH 19 23
ATOM     20  C1  SGN B   2     -26.437  48.164  13.9680  0.00  0.00     0.000 C
ATOM     21  C2  SGN B   2     -27.603  48.008  13.0170  0.00  0.00     0.000 C
ATOM     22  C3  SGN B   2     -27.344  48.795  11.7840  0.00  0.00     0.000 C
ATOM     23  C4  SGN B   2     -27.284  50.230  12.2530  0.00  0.00     0.000 C
ATOM     24  C5  SGN B   2     -26.068  50.311  13.1090  0.00  0.00     0.000 C
ATOM     25  O5  SGN B   2     -26.255  49.546  14.2440  0.00  0.00     0.000 O
ATOM     26   O  SGN B   2     -28.391  48.619  10.8960  0.00  0.00     0.000 O
ATOM     28  HD  SGN B   2     -29.095  48.688  10.3960  0.00  0.00     0.000 HD
BRANCH 21 30
ATOM     28   N  SGN B   2     -28.395  47.369  14.0280  0.00  0.00     0.000 N
ATOM     30  HD  SGN B   2     -27.763  47.183  14.5900  0.00  0.00     0.000 HD
ATOM     30 @NS  SGN B   2     -28.683  45.780  13.8420  0.00  0.00     0.000 S
ATOM     31   O  SGN B   2     -27.928  45.293  12.7370  0.00  0.00     0.000 OA
ATOM     32   O  SGN B   2     -28.243  45.221  15.0540  0.00  0.00     0.000 OA
ATOM     33   O  SGN B   2     -30.072  45.655  13.6070  0.00  0.00     0.000 OA
ENDBRANCH 21 30
BRANCH 24 34
ATOM     34   C  SGN B   2     -25.703  51.675  13.5670  0.00  0.00     0.000 C
ATOM     35   O  SGN B   2     -26.004  51.757  14.9150  0.00  0.00     0.000 O
ATOM     36  @S  SGN B   2     -25.580  52.922  15.8020  0.00  0.00     0.000 S
ATOM     37   O  SGN B   2     -26.692  53.849  15.7290  0.00  0.00     0.000 OA
ATOM     38   O  SGN B   2     -25.362  52.381  17.1230  0.00  0.00     0.000 OA
ATOM     39   O  SGN B   2     -24.352  53.429  15.2050  0.00  0.00     0.000 OA
ENDBRANCH 24 34
BRANCH 20 40
ATOM     40  O4  IDS B   3     -25.284  47.600  13.4240  0.00  0.00     0.000 O
BRANCH 40 44
ATOM     41  C1  IDS B   3     -22.011  46.362  13.1730  0.00  0.00     0.000 C
ATOM     42  C2  IDS B   3     -23.198  45.511  12.7270  0.00  0.00     0.000 C
ATOM     43  C3  IDS B   3     -24.384  45.455  13.7100  0.00  0.00     0.000 C
ATOM     44  C4  IDS B   3     -24.621  46.807  14.3520  0.00  0.00     0.000 C
ATOM     45  C5  IDS B   3     -23.309  47.482  14.7800  0.00  0.00     0.000 C
ATOM     46  O5  IDS B   3     -22.457  47.604  13.6990  0.00  0.00     0.000 O
ATOM     47   O  IDS B   3     -24.101  44.522  14.7320  0.00  0.00     0.000 O
ATOM     49  HD  IDS B   3     -24.605  44.995  14.2090  0.00  0.00     0.000 HD
BRANCH 42 49
ATOM     49   O  IDS B   3     -23.686  46.026  11.5210  0.00  0.00     0.000 O
ATOM     50   O  IDS B   3     -24.375  43.883  10.8280  0.00  0.00     0.000 OA
ATOM     51   O  IDS B   3     -25.749  45.748  10.3400  0.00  0.00     0.000 OA
ATOM     52   O  IDS B   3     -23.661  45.493   9.2680  0.00  0.00     0.000 OA
ATOM     53  @S  IDS B   3     -24.415  45.241  10.4270  0.00  0.00     0.000 S
ENDBRANCH 42 49
BRANCH 45 54
ATOM     54 @CA  IDS B   3     -23.463  48.836  15.4680  0.00  0.00     0.000 C
ATOM     55   O  IDS B   3     -24.000  48.942  16.5380  0.00  0.00     0.000 OA
ATOM     56   O  IDS B   3     -23.037  49.829  14.9780  0.00  0.00     0.000 OA
ENDBRANCH 45 54
BRANCH 41 57
ATOM     57  O4  SGN B   4     -21.252  45.655  14.0980  0.00  0.00     0.000 O
BRANCH 57 61
ATOM     58  C1  SGN B   4     -18.035  48.220  13.8300  0.00  0.00     0.000 C
ATOM     59  C2  SGN B   4     -18.028  47.054  12.8560  0.00  0.00     0.000 C
ATOM     60  C3  SGN B   4     -19.418  46.429  12.7870  0.00  0.00     0.000 C
ATOM     61  C4  SGN B   4     -19.907  46.014  14.1790  0.00  0.00     0.000 C
ATOM     62  C5  SGN B   4     -19.788  47.227  15.0970  0.00  0.00     0.000 C
ATOM     63  O5  SGN B   4     -18.472  47.748  15.0930  0.00  0.00     0.000 O
ATOM     64   O  SGN B   4     -19.359  45.278  11.9700  0.00  0.00     0.000 O
ATOM     66  HD  SGN B   4     -19.578  44.528  12.3450  0.00  0.00     0.000 HD
BRANCH 59 68
ATOM     66   N  SGN B   4     -16.691  46.840  12.3390  0.00  0.00     0.000 N
ATOM     68  HD  SGN B   4     -17.055  47.103  13.0800  0.00  0.00     0.000 HD
ATOM     68 @NS  SGN B   4     -16.042  47.907  11.2770  0.00  0.00     0.000 S
ATOM     69   O  SGN B   4     -17.079  48.350  10.3930  0.00  0.00     0.000 OA
ATOM     70   O  SGN B   4     -15.529  48.991  12.0640  0.00  0.00     0.000 OA
ATOM     71   O  SGN B   4     -15.022  47.161  10.6040  0.00  0.00     0.000 OA
ENDBRANCH 59 68
BRANCH 62 72
ATOM     72   C  SGN B   4     -20.127  46.908  16.5450  0.00  0.00     0.000 C
ATOM     73   O  SGN B   4     -18.927  47.036  17.2480  0.00  0.00     0.000 O
ATOM     74  @S  SGN B   4     -18.740  47.481  18.7090  0.00  0.00     0.000 S
ATOM     75   O  SGN B   4     -19.476  46.584  19.5210  0.00  0.00     0.000 OA
ATOM     76   O  SGN B   4     -17.329  47.380  18.9290  0.00  0.00     0.000 OA
ATOM     77   O  SGN B   4     -19.268  48.802  18.7830  0.00  0.00     0.000 OA
ENDBRANCH 62 72
BRANCH 58 78
ATOM     78  O4  IDS B   5     -18.851  49.263  13.3360  0.00  0.00     0.000 O
BRANCH 78 82
ATOM     79  C1  IDS B   5     -20.580  52.231  12.8920  0.00  0.00     0.000 C
ATOM     80  C2  IDS B   5     -19.879  51.610  11.7230  0.00  0.00     0.000 C
ATOM     81  C3  IDS B   5     -18.428  51.230  12.0040  0.00  0.00     0.000 C
ATOM     82  C4  IDS B   5     -18.252  50.541  13.3410  0.00  0.00     0.000 C
ATOM     83  C5  IDS B   5     -18.928  51.384  14.3750  0.00  0.00     0.000 C
ATOM     84  O5  IDS B   5     -20.305  51.494  14.0700  0.00  0.00     0.000 O
ATOM     85   O  IDS B   5     -17.672  52.417  12.0330  0.00  0.00     0.000 O
ATOM     87  HD  IDS B   5     -17.720  51.794  12.6330  0.00  0.00     0.000 HD
BRANCH 80 87
ATOM     87   O  IDS B   5     -20.539  50.452  11.3920  0.00  0.00     0.000 O
ATOM     88  @S  IDS B   5     -21.795  50.322  10.5280  0.00  0.00     0.000 S
ATOM     89   O  IDS B   5     -21.487  51.005   9.3240  0.00  0.00     0.000 OA
ATOM     90   O  IDS B   5     -22.002  48.925  10.3700  0.00  0.00     0.000 OA
ATOM     91   O  IDS B   5     -22.844  50.936  11.2650  0.00  0.00     0.000 OA
ENDBRANCH 80 87
BRANCH 83 92
ATOM     92 @CA  IDS B   5     -18.679  50.919  15.8050  0.00  0.00     0.000 C
ATOM     93   O  IDS B   5     -17.533  50.726  16.2190  0.00  0.00     0.000 OA
ATOM     94   O  IDS B   5     -19.625  50.721  16.5760  0.00  0.00     0.000 OA
ENDBRANCH 83 92
BRANCH 79 95
ATOM     95  O4  SGN B   6     -20.202  53.562  13.0060  0.00  0.00     0.000 O
BRANCH 95 99
ATOM     96  C1  SGN B   6     -20.669  56.581  15.8130  0.00  0.00     0.000 C
ATOM     97  C2  SGN B   6     -19.977  55.315  16.3040  0.00  0.00     0.000 C
ATOM     98  C3  SGN B   6     -19.423  54.612  15.0650  0.00  0.00     0.000 C
ATOM     99  C4  SGN B   6     -20.642  54.199  14.1920  0.00  0.00     0.000 C
ATOM    100  C5  SGN B   6     -21.381  55.514  13.8120  0.00  0.00     0.000 C
ATOM    101  O5  SGN B   6     -21.757  56.252  14.9710  0.00  0.00     0.000 O
BRANCH 97 104
ATOM    102   N  SGN B   6     -19.340  56.131  17.3430  0.00  0.00     0.000 N
ATOM    104  HD  SGN B   6     -18.666  55.702  17.6770  0.00  0.00     0.000 HD
ATOM    104 @NS  SGN B   6     -19.372  55.556  18.8990  0.00  0.00     0.000 S
ATOM    105   O  SGN B   6     -20.039  54.272  18.8790  0.00  0.00     0.000 OA
ATOM    106   O  SGN B   6     -17.998  55.452  19.3320  0.00  0.00     0.000 OA
ATOM    107   O  SGN B   6     -20.121  56.525  19.6670  0.00  0.00     0.000 OA
ENDBRANCH 97 104
BRANCH 100 108
ATOM    108   C  SGN B   6     -22.653  55.353  12.9870  0.00  0.00     0.000 C
ATOM    109   O  SGN B   6     -23.678  56.131  13.5530  0.00  0.00     0.000 O
ATOM    110  @S  SGN B   6     -25.150  56.244  13.0150  0.00  0.00     0.000 S
ATOM    111   O  SGN B   6     -25.527  54.912  12.6070  0.00  0.00     0.000 OA
ATOM    112   O  SGN B   6     -25.958  56.725  14.1250  0.00  0.00     0.000 OA
ATOM    113   O  SGN B   6     -25.093  57.172  11.9080  0.00  0.00     0.000 OA
ENDBRANCH 100 108
ENDBRANCH 95 99
ENDBRANCH 79 95
ENDBRANCH 78 82
ENDBRANCH 58 78
ENDBRANCH 57 61
ENDBRANCH 41 57
ENDBRANCH 40 44
ENDBRANCH 20 40
ENDBRANCH 19 23
ENDBRANCH 1 19
TORSDOF 22
ENDMDL
MODEL 41
REMARK VINA RESULT:       1.9      2.548      8.483
ROOT
ATOM      1  C1  IDS B   1     -22.829  49.706  10.9010  0.00  0.00     0.000 C
ATOM      2  C2  IDS B   1     -24.015  49.375  11.7700  0.00  0.00     0.000 C
ATOM      3  C3  IDS B   1     -24.686  50.569  12.4890  0.00  0.00     0.000 C
ATOM      4  C4  IDS B   1     -24.531  51.937  11.7250  0.00  0.00     0.000 C
ATOM      5  C5  IDS B   1     -23.245  51.997  10.8640  0.00  0.00     0.000 C
ATOM      6  O5  IDS B   1     -23.125  50.829  10.0960  0.00  0.00     0.000 O
ATOM      7   O  IDS B   1     -24.123  50.646  13.7950  0.00  0.00     0.000 O
ATOM      9  HD  IDS B   1     -24.430  51.423  13.5660  0.00  0.00     0.000 HD
ATOM      9   O  IDS B   1     -25.638  52.075  10.8620  0.00  0.00     0.000 O
ATOM     11  HD  IDS B   1     -25.945  52.851  10.6330  0.00  0.00     0.000 HD
ENDROOT
BRANCH 2 11
ATOM     11   O  IDS B   1     -25.001  48.774  11.0030  0.00  0.00     0.000 O
ATOM     12  @S  IDS B   1     -26.387  48.361  11.5340  0.00  0.00     0.000 S
ATOM     13   O  IDS B   1     -26.164  48.135  12.9480  0.00  0.00     0.000 OA
ATOM     14   O  IDS B   1     -27.279  49.479  11.2830  0.00  0.00     0.000 OA
ATOM     15   O  IDS B   1     -26.755  47.170  10.7940  0.00  0.00     0.000 OA
ENDBRANCH 2 11
BRANCH 5 16
ATOM     16 @CA  IDS B   1     -23.081  53.221   9.9680  0.00  0.00     0.000 C
ATOM     17   O  IDS B   1     -22.027  53.452   9.3800  0.00  0.00     0.000 OA
ATOM     18   O  IDS B   1     -24.014  54.004   9.8050  0.00  0.00     0.000 OA
ENDBRANCH 5 16
BRANCH 1 19
ATOM     19  O4  SGN B   2     -21.728  49.968  11.7460  0.00  0.00     0.000 O
BRANCH 19 23
ATOM     20  C1  SGN B   2     -18.045  48.227  12.1490  0.00  0.00     0.000 C
ATOM     21  C2  SGN B   2     -18.510  48.633  10.7680  0.00  0.00     0.000 C
ATOM     22  C3  SGN B   2     -19.521  49.716  10.8850  0.00  0.00     0.000 C
ATOM     23  C4  SGN B   2     -20.677  49.080  11.6230  0.00  0.00     0.000 C
ATOM     24  C5  SGN B   2     -20.157  48.791  12.9890  0.00  0.00     0.000 C
ATOM     25  O5  SGN B   2     -19.174  47.823  12.9110  0.00  0.00     0.000 O
ATOM     26   O  SGN B   2     -19.916  50.117   9.6210  0.00  0.00     0.000 O
ATOM     28  HD  SGN B   2     -20.324  50.268   8.8710  0.00  0.00     0.000 HD
BRANCH 21 30
ATOM     28   N  SGN B   2     -17.335  47.815  10.6820  0.00  0.00     0.000 N
ATOM     30  HD  SGN B   2     -16.761  48.377  11.0050  0.00  0.00     0.000 HD
ATOM     30 @NS  SGN B   2     -16.533  47.823   9.2690  0.00  0.00     0.000 S
ATOM     31   O  SGN B   2     -17.107  48.805   8.4110  0.00  0.00     0.000 OA
ATOM     32   O  SGN B   2     -15.220  48.163   9.6360  0.00  0.00     0.000 OA
ATOM     33   O  SGN B   2     -16.675  46.525   8.7260  0.00  0.00     0.000 OA
ENDBRANCH 21 30
BRANCH 24 34
ATOM     34   C  SGN B   2     -21.165  48.301  13.9620  0.00  0.00     0.000 C
ATOM     35   O  SGN B   2     -21.452  46.987  13.6390  0.00  0.00     0.000 O
ATOM     36  @S  SGN B   2     -22.280  46.066  14.5280  0.00  0.00     0.000 S
ATOM     37   O  SGN B   2     -23.639  46.240  14.0550  0.00  0.00     0.000 OA
ATOM     38   O  SGN B   2     -21.766  44.730  14.3330  0.00  0.00     0.000 OA
ATOM     39   O  SGN B   2     -22.062  46.547  15.8850  0.00  0.00     0.000 OA
ENDBRANCH 24 34
BRANCH 20 40
ATOM     40  O4  IDS B   3     -17.368  49.279  12.7660  0.00  0.00     0.000 O
BRANCH 40 44
ATOM     41  C1  IDS B   3     -15.069  50.817  14.9230  0.00  0.00     0.000 C
ATOM     42  C2  IDS B   3     -14.758  49.458  14.2990  0.00  0.00     0.000 C
ATOM     43  C3  IDS B   3     -15.892  48.417  14.3690  0.00  0.00     0.000 C
ATOM     44  C4  IDS B   3     -17.241  49.067  14.1320  0.00  0.00     0.000 C
ATOM     45  C5  IDS B   3     -17.380  50.399  14.8870  0.00  0.00     0.000 C
ATOM     46  O5  IDS B   3     -16.361  51.260  14.5330  0.00  0.00     0.000 O
ATOM     47   O  IDS B   3     -15.905  47.824  15.6510  0.00  0.00     0.000 O
ATOM     49  HD  IDS B   3     -16.048  47.867  14.7980  0.00  0.00     0.000 HD
BRANCH 42 49
ATOM     49   O  IDS B   3     -14.456  49.648  12.9460  0.00  0.00     0.000 O
ATOM     50   O  IDS B   3     -12.369  50.592  13.4930  0.00  0.00     0.000 OA
ATOM     51   O  IDS B   3     -12.528  49.158  11.6170  0.00  0.00     0.000 OA
ATOM     52   O  IDS B   3     -13.551  51.284  11.5810  0.00  0.00     0.000 OA
ATOM     53  @S  IDS B   3     -13.146  50.199  12.3760  0.00  0.00     0.000 S
ENDBRANCH 42 49
BRANCH 45 54
ATOM     54 @CA  IDS B   3     -18.726  51.102  14.7280  0.00  0.00     0.000 C
ATOM     55   O  IDS B   3     -19.579  51.030  15.5710  0.00  0.00     0.000 OA
ATOM     56   O  IDS B   3     -18.967  51.764  13.7730  0.00  0.00     0.000 OA
ENDBRANCH 45 54
BRANCH 41 57
ATOM     57  O4  SGN B   4     -14.950  50.733  16.3050  0.00  0.00     0.000 O
BRANCH 57 61
ATOM     58  C1  SGN B   4     -15.987  54.611  17.2470  0.00  0.00     0.000 C
ATOM     59  C2  SGN B   4     -14.623  54.435  16.6010  0.00  0.00     0.000 C
ATOM     60  C3  SGN B   4     -14.529  53.054  15.9590  0.00  0.00     0.000 C
ATOM     61  C4  SGN B   4     -14.832  51.949  16.9770  0.00  0.00     0.000 C
ATOM     62  C5  SGN B   4     -16.174  52.269  17.6300  0.00  0.00     0.000 C
ATOM     63  O5  SGN B   4     -16.176  53.569  18.1900  0.00  0.00     0.000 O
ATOM     64   O  SGN B   4     -13.217  52.867  15.4700  0.00  0.00     0.000 O
ATOM     66  HD  SGN B   4     -12.773  52.202  15.8030  0.00  0.00     0.000 HD
BRANCH 59 68
ATOM     66   N  SGN B   4     -13.783  55.593  16.8310  0.00  0.00     0.000 N
ATOM     68  HD  SGN B   4     -14.391  55.150  17.2600  0.00  0.00     0.000 HD
ATOM     68 @NS  SGN B   4     -14.124  57.014  16.0870  0.00  0.00     0.000 S
ATOM     69   O  SGN B   4     -14.586  56.728  14.7610  0.00  0.00     0.000 OA
ATOM     70   O  SGN B   4     -15.148  57.640  16.8720  0.00  0.00     0.000 OA
ATOM     71   O  SGN B   4     -12.882  57.726  16.0990  0.00  0.00     0.000 OA
ENDBRANCH 59 68
BRANCH 62 72
ATOM     72   C  SGN B   4     -16.528  51.309  18.7550  0.00  0.00     0.000 C
ATOM     73   O  SGN B   4     -17.697  50.665  18.3440  0.00  0.00     0.000 O
ATOM     74  @S  SGN B   4     -18.142  49.231  18.6780  0.00  0.00     0.000 S
ATOM     75   O  SGN B   4     -18.216  49.128  20.0880  0.00  0.00     0.000 OA
ATOM     76   O  SGN B   4     -19.427  49.109  18.0570  0.00  0.00     0.000 OA
ATOM     77   O  SGN B   4     -17.134  48.377  18.1460  0.00  0.00     0.000 OA
ENDBRANCH 62 72
BRANCH 58 78
ATOM     78  O4  IDS B   5     -16.996  54.629  16.2580  0.00  0.00     0.000 O
BRANCH 78 82
ATOM     79  C1  IDS B   5     -19.783  54.999  14.2360  0.00  0.00     0.000 C
ATOM     80  C2  IDS B   5     -18.554  55.804  13.9430  0.00  0.00     0.000 C
ATOM     81  C3  IDS B   5     -17.991  56.534  15.1600  0.00  0.00     0.000 C
ATOM     82  C4  IDS B   5     -17.949  55.660  16.3970  0.00  0.00     0.000 C
ATOM     83  C5  IDS B   5     -19.302  55.046  16.5620  0.00  0.00     0.000 C
ATOM     84  O5  IDS B   5     -19.604  54.256  15.4280  0.00  0.00     0.000 O
ATOM     85   O  IDS B   5     -18.836  57.624  15.4370  0.00  0.00     0.000 O
ATOM     87  HD  IDS B   5     -18.579  56.993  15.9710  0.00  0.00     0.000 HD
BRANCH 80 87
ATOM     87   O  IDS B   5     -17.576  54.949  13.5010  0.00  0.00     0.000 O
ATOM     88  @S  IDS B   5     -17.076  54.787  12.0630  0.00  0.00     0.000 S
ATOM     89   O  IDS B   5     -16.732  56.097  11.6430  0.00  0.00     0.000 OA
ATOM     90   O  IDS B   5     -15.975  53.892  12.1460  0.00  0.00     0.000 OA
ATOM     91   O  IDS B   5     -18.160  54.232  11.3310  0.00  0.00     0.000 OA
ENDBRANCH 80 87
BRANCH 83 92
ATOM     92 @CA  IDS B   5     -19.475  54.285  17.8710  0.00  0.00     0.000 C
ATOM     93   O  IDS B   5     -19.038  54.738  18.9310  0.00  0.00     0.000 OA
ATOM     94   O  IDS B   5     -20.055  53.193  17.8920  0.00  0.00     0.000 OA
ENDBRANCH 83 92
BRANCH 79 95
ATOM     95  O4  SGN B   6     -20.885  55.842  14.3030  0.00  0.00     0.000 O
BRANCH 95 99
ATOM     96  C1  SGN B   6     -24.983  55.251  14.5650  0.00  0.00     0.000 C
ATOM     97  C2  SGN B   6     -24.115  54.222  15.2790  0.00  0.00     0.000 C
ATOM     98  C3  SGN B   6     -22.765  54.893  15.5350  0.00  0.00     0.000 C
ATOM     99  C4  SGN B   6     -22.133  55.191  14.1450  0.00  0.00     0.000 C
ATOM    100  C5  SGN B   6     -23.111  56.151  13.4090  0.00  0.00     0.000 C
ATOM    101  O5  SGN B   6     -24.417  55.590  13.3140  0.00  0.00     0.000 O
BRANCH 97 104
ATOM    102   N  SGN B   6     -25.475  53.713  15.4770  0.00  0.00     0.000 N
ATOM    104  HD  SGN B   6     -25.688  53.769  16.3140  0.00  0.00     0.000 HD
ATOM    104 @NS  SGN B   6     -25.659  52.353  16.4090  0.00  0.00     0.000 S
ATOM    105   O  SGN B   6     -24.348  51.964  16.8810  0.00  0.00     0.000 OA
ATOM    106   O  SGN B   6     -26.545  52.709  17.4930  0.00  0.00     0.000 OA
ATOM    107   O  SGN B   6     -26.225  51.346  15.5400  0.00  0.00     0.000 OA
ENDBRANCH 97 104
BRANCH 100 108
ATOM    108   C  SGN B   6     -22.720  56.547  11.9900  0.00  0.00     0.000 C
ATOM    109   O  SGN B   6     -21.370  56.938  11.9700  0.00  0.00     0.000 O
ATOM    110  @S  SGN B   6     -20.573  57.426  10.7060  0.00  0.00     0.000 S
ATOM    111   O  SGN B   6     -21.480  58.269   9.9650  0.00  0.00     0.000 OA
ATOM    112   O  SGN B   6     -19.424  58.165  11.2050  0.00  0.00     0.000 OA
ATOM    113   O  SGN B   6     -20.209  56.227   9.9860  0.00  0.00     0.000 OA
ENDBRANCH 100 108
ENDBRANCH 95 99
ENDBRANCH 79 95
ENDBRANCH 78 82
ENDBRANCH 58 78
ENDBRANCH 57 61
ENDBRANCH 41 57
ENDBRANCH 40 44
ENDBRANCH 20 40
ENDBRANCH 19 23
ENDBRANCH 1 19
TORSDOF 22
ENDMDL
MODEL 42
REMARK VINA RESULT:       2.0      1.823      2.561
ROOT
ATOM      1  C1  IDS B   1     -24.289  56.287  13.7340  0.00  0.00     0.000 C
ATOM      2  C2  IDS B   1     -25.109  56.405  12.4760  0.00  0.00     0.000 C
ATOM      3  C3  IDS B   1     -26.122  55.265  12.2150  0.00  0.00     0.000 C
ATOM      4  C4  IDS B   1     -26.649  54.573  13.5280  0.00  0.00     0.000 C
ATOM      5  C5  IDS B   1     -25.625  54.635  14.6870  0.00  0.00     0.000 C
ATOM      6  O5  IDS B   1     -25.124  55.938  14.8190  0.00  0.00     0.000 O
ATOM      7   O  IDS B   1     -25.485  54.321  11.3600  0.00  0.00     0.000 O
ATOM      9  HD  IDS B   1     -26.114  53.928  11.8070  0.00  0.00     0.000 HD
ATOM      9   O  IDS B   1     -27.811  55.259  13.9370  0.00  0.00     0.000 O
ATOM     11  HD  IDS B   1     -28.440  54.867  14.3840  0.00  0.00     0.000 HD
ENDROOT
BRANCH 2 11
ATOM     11   O  IDS B   1     -25.841  57.581  12.5060  0.00  0.00     0.000 O
ATOM     12  @S  IDS B   1     -26.057  58.504  11.2910  0.00  0.00     0.000 S
ATOM     13   O  IDS B   1     -24.902  58.252  10.4540  0.00  0.00     0.000 OA
ATOM     14   O  IDS B   1     -27.300  58.087  10.6670  0.00  0.00     0.000 OA
ATOM     15   O  IDS B   1     -26.119  59.851  11.8240  0.00  0.00     0.000 OA
ENDBRANCH 2 11
BRANCH 5 16
ATOM     16 @CA  IDS B   1     -26.100  54.125  16.0440  0.00  0.00     0.000 C
ATOM     17   O  IDS B   1     -27.080  53.392  16.1500  0.00  0.00     0.000 OA
ATOM     18   O  IDS B   1     -25.497  54.430  17.0710  0.00  0.00     0.000 OA
ENDBRANCH 5 16
BRANCH 1 19
ATOM     19  O4  SGN B   2     -23.302  55.299  13.5210  0.00  0.00     0.000 O
BRANCH 19 23
ATOM     20  C1  SGN B   2     -19.375  55.027  14.6460  0.00  0.00     0.000 C
ATOM     21  C2  SGN B   2     -20.388  55.518  15.6570  0.00  0.00     0.000 C
ATOM     22  C3  SGN B   2     -21.736  55.008  15.2930  0.00  0.00     0.000 C
ATOM     23  C4  SGN B   2     -22.035  55.641  13.9540  0.00  0.00     0.000 C
ATOM     24  C5  SGN B   2     -21.050  55.042  13.0100  0.00  0.00     0.000 C
ATOM     25  O5  SGN B   2     -19.777  55.454  13.3520  0.00  0.00     0.000 O
ATOM     26   O  SGN B   2     -22.657  55.422  16.2400  0.00  0.00     0.000 O
ATOM     28  HD  SGN B   2     -23.286  55.805  16.6950  0.00  0.00     0.000 HD
BRANCH 21 30
ATOM     28   N  SGN B   2     -19.262  56.254  16.1530  0.00  0.00     0.000 N
ATOM     30  HD  SGN B   2     -18.636  55.697  15.9360  0.00  0.00     0.000 HD
ATOM     30 @NS  SGN B   2     -18.883  56.052  17.7200  0.00  0.00     0.000 S
ATOM     31   O  SGN B   2     -19.697  55.021  18.2700  0.00  0.00     0.000 OA
ATOM     32   O  SGN B   2     -17.529  55.679  17.6870  0.00  0.00     0.000 OA
ATOM     33   O  SGN B   2     -19.136  57.292  18.3510  0.00  0.00     0.000 OA
ENDBRANCH 21 30
BRANCH 24 34
ATOM     34   C  SGN B   2     -21.245  55.392  11.5810  0.00  0.00     0.000 C
ATOM     35   O  SGN B   2     -21.887  54.328  10.9740  0.00  0.00     0.000 O
ATOM     36  @S  SGN B   2     -22.455  54.384   9.5610  0.00  0.00     0.000 S
ATOM     37   O  SGN B   2     -21.371  53.914   8.7210  0.00  0.00     0.000 OA
ATOM     38   O  SGN B   2     -23.614  53.523   9.5440  0.00  0.00     0.000 OA
ATOM     39   O  SGN B   2     -22.804  55.781   9.3450  0.00  0.00     0.000 OA
ENDBRANCH 24 34
BRANCH 20 40
ATOM     40  O4  IDS B   3     -19.257  53.639  14.7070  0.00  0.00     0.000 O
BRANCH 40 44
ATOM     41  C1  IDS B   3     -17.402  50.679  15.0290  0.00  0.00     0.000 C
ATOM     42  C2  IDS B   3     -16.849  52.002  15.5550  0.00  0.00     0.000 C
ATOM     43  C3  IDS B   3     -16.958  53.200  14.5920  0.00  0.00     0.000 C
ATOM     44  C4  IDS B   3     -18.275  53.175  13.8420  0.00  0.00     0.000 C
ATOM     45  C5  IDS B   3     -18.631  51.765  13.3470  0.00  0.00     0.000 C
ATOM     46  O5  IDS B   3     -18.662  50.878  14.4060  0.00  0.00     0.000 O
ATOM     47   O  IDS B   3     -15.910  53.139  13.6480  0.00  0.00     0.000 O
ATOM     49  HD  IDS B   3     -16.514  53.523  14.1340  0.00  0.00     0.000 HD
BRANCH 42 49
ATOM     49   O  IDS B   3     -17.546  52.344  16.7190  0.00  0.00     0.000 O
ATOM     50   O  IDS B   3     -16.327  50.766  17.9720  0.00  0.00     0.000 OA
ATOM     51   O  IDS B   3     -16.850  52.857  18.9500  0.00  0.00     0.000 OA
ATOM     52   O  IDS B   3     -18.557  51.286  18.5130  0.00  0.00     0.000 OA
ATOM     53  @S  IDS B   3     -17.302  51.783  18.1220  0.00  0.00     0.000 S
ENDBRANCH 42 49
BRANCH 45 54
ATOM     54 @CA  IDS B   3     -19.930  51.660  12.5510  0.00  0.00     0.000 C
ATOM     55   O  IDS B   3     -20.938  51.230  13.0430  0.00  0.00     0.000 OA
ATOM     56   O  IDS B   3     -19.993  52.022  11.4230  0.00  0.00     0.000 OA
ENDBRANCH 45 54
BRANCH 41 57
ATOM     57  O4  SGN B   4     -16.484  50.104  14.1590  0.00  0.00     0.000 O
BRANCH 57 61
ATOM     58  C1  SGN B   4     -18.220  46.372  13.9230  0.00  0.00     0.000 C
ATOM     59  C2  SGN B   4     -17.473  46.668  15.2130  0.00  0.00     0.000 C
ATOM     60  C3  SGN B   4     -17.228  48.169  15.3360  0.00  0.00     0.000 C
ATOM     61  C4  SGN B   4     -16.491  48.711  14.1050  0.00  0.00     0.000 C
ATOM     62  C5  SGN B   4     -17.273  48.282  12.8660  0.00  0.00     0.000 C
ATOM     63  O5  SGN B   4     -17.463  46.880  12.8380  0.00  0.00     0.000 O
ATOM     64   O  SGN B   4     -16.430  48.407  16.4770  0.00  0.00     0.000 O
ATOM     66  HD  SGN B   4     -15.666  48.791  16.3390  0.00  0.00     0.000 HD
BRANCH 59 68
ATOM     66   N  SGN B   4     -18.266  46.181  16.3230  0.00  0.00     0.000 N
ATOM     68  HD  SGN B   4     -17.508  46.583  16.2080  0.00  0.00     0.000 HD
ATOM     68 @NS  SGN B   4     -18.345  44.573  16.6320  0.00  0.00     0.000 S
ATOM     69   O  SGN B   4     -18.378  43.875  15.3810  0.00  0.00     0.000 OA
ATOM     70   O  SGN B   4     -17.163  44.251  17.3780  0.00  0.00     0.000 OA
ATOM     71   O  SGN B   4     -19.553  44.415  17.3850  0.00  0.00     0.000 OA
ENDBRANCH 59 68
BRANCH 62 72
ATOM     72   C  SGN B   4     -16.572  48.653  11.5680  0.00  0.00     0.000 C
ATOM     73   O  SGN B   4     -17.558  49.225  10.7610  0.00  0.00     0.000 O
ATOM     74  @S  SGN B   4     -17.378  50.326   9.7010  0.00  0.00     0.000 S
ATOM     75   O  SGN B   4     -16.443  49.850   8.7510  0.00  0.00     0.000 OA
ATOM     76   O  SGN B   4     -18.685  50.492   9.1410  0.00  0.00     0.000 OA
ATOM     77   O  SGN B   4     -16.875  51.460  10.4010  0.00  0.00     0.000 OA
ENDBRANCH 62 72
BRANCH 58 78
ATOM     78  O4  IDS B   5     -19.520  46.924  13.9760  0.00  0.00     0.000 O
BRANCH 78 82
ATOM     79  C1  IDS B   5     -22.901  47.648  14.1870  0.00  0.00     0.000 C
ATOM     80  C2  IDS B   5     -22.276  46.762  15.2200  0.00  0.00     0.000 C
ATOM     81  C3  IDS B   5     -21.444  45.624  14.6350  0.00  0.00     0.000 C
ATOM     82  C4  IDS B   5     -20.546  46.079  13.5020  0.00  0.00     0.000 C
ATOM     83  C5  IDS B   5     -21.393  46.844  12.5360  0.00  0.00     0.000 C
ATOM     84  O5  IDS B   5     -21.952  47.970  13.1860  0.00  0.00     0.000 O
ATOM     85   O  IDS B   5     -22.333  44.665  14.1160  0.00  0.00     0.000 O
ATOM     87  HD  IDS B   5     -21.672  45.059  13.7180  0.00  0.00     0.000 HD
BRANCH 80 87
ATOM     87   O  IDS B   5     -21.428  47.525  15.9850  0.00  0.00     0.000 O
ATOM     88  @S  IDS B   5     -21.612  47.915  17.4540  0.00  0.00     0.000 S
ATOM     89   O  IDS B   5     -21.830  46.691  18.1350  0.00  0.00     0.000 OA
ATOM     90   O  IDS B   5     -20.413  48.582  17.8200  0.00  0.00     0.000 OA
ATOM     91   O  IDS B   5     -22.738  48.782  17.4910  0.00  0.00     0.000 OA
ENDBRANCH 80 87
BRANCH 83 92
ATOM     92 @CA  IDS B   5     -20.672  47.210  11.2440  0.00  0.00     0.000 C
ATOM     93   O  IDS B   5     -19.964  46.387  10.6570  0.00  0.00     0.000 OA
ATOM     94   O  IDS B   5     -20.779  48.344  10.7630  0.00  0.00     0.000 OA
ENDBRANCH 83 92
BRANCH 79 95
ATOM     95  O4  SGN B   6     -24.027  47.027  13.6630  0.00  0.00     0.000 O
BRANCH 95 99
ATOM     96  C1  SGN B   6     -27.492  48.331  11.7910  0.00  0.00     0.000 C
ATOM     97  C2  SGN B   6     -26.215  49.075  11.4210  0.00  0.00     0.000 C
ATOM     98  C3  SGN B   6     -25.053  48.137  11.7480  0.00  0.00     0.000 C
ATOM     99  C4  SGN B   6     -25.065  47.914  13.2870  0.00  0.00     0.000 C
ATOM    100  C5  SGN B   6     -26.434  47.260  13.6310  0.00  0.00     0.000 C
ATOM    101  O5  SGN B   6     -27.522  48.062  13.1790  0.00  0.00     0.000 O
BRANCH 97 104
ATOM    102   N  SGN B   6     -26.635  49.421  10.0600  0.00  0.00     0.000 N
ATOM    104  HD  SGN B   6     -25.995  49.843   9.6560  0.00  0.00     0.000 HD
ATOM    104 @NS  SGN B   6     -26.770  51.031   9.6830  0.00  0.00     0.000 S
ATOM    105   O  SGN B   6     -26.384  51.790  10.8530  0.00  0.00     0.000 OA
ATOM    106   O  SGN B   6     -25.891  51.272   8.5620  0.00  0.00     0.000 OA
ATOM    107   O  SGN B   6     -28.161  51.249   9.3510  0.00  0.00     0.000 OA
ENDBRANCH 97 104
BRANCH 100 108
ATOM    108   C  SGN B   6     -26.697  46.991  15.1080  0.00  0.00     0.000 C
ATOM    109   O  SGN B   6     -25.776  46.038  15.5790  0.00  0.00     0.000 O
ATOM    110  @S  SGN B   6     -25.704  45.476  17.0450  0.00  0.00     0.000 S
ATOM    111   O  SGN B   6     -27.072  45.288  17.4650  0.00  0.00     0.000 OA
ATOM    112   O  SGN B   6     -24.977  44.219  16.9680  0.00  0.00     0.000 OA
ATOM    113   O  SGN B   6     -25.016  46.485  17.8180  0.00  0.00     0.000 OA
ENDBRANCH 100 108
ENDBRANCH 95 99
ENDBRANCH 79 95
ENDBRANCH 78 82
ENDBRANCH 58 78
ENDBRANCH 57 61
ENDBRANCH 41 57
ENDBRANCH 40 44
ENDBRANCH 20 40
ENDBRANCH 19 23
ENDBRANCH 1 19
TORSDOF 22
ENDMDL
MODEL 43
REMARK VINA RESULT:       2.0      3.989      8.129
ROOT
ATOM      1  C1  IDS B   1     -12.062  58.008  15.0000  0.00  0.00     0.000 C
ATOM      2  C2  IDS B   1     -12.847  59.085  15.7020  0.00  0.00     0.000 C
ATOM      3  C3  IDS B   1     -12.956  58.955  17.2390  0.00  0.00     0.000 C
ATOM      4  C4  IDS B   1     -11.740  58.203  17.8990  0.00  0.00     0.000 C
ATOM      5  C5  IDS B   1     -11.081  57.180  16.9420  0.00  0.00     0.000 C
ATOM      6  O5  IDS B   1     -10.853  57.769  15.6900  0.00  0.00     0.000 O
ATOM      7   O  IDS B   1     -14.183  58.289  17.5210  0.00  0.00     0.000 O
ATOM      9  HD  IDS B   1     -13.634  58.174  18.1800  0.00  0.00     0.000 HD
ATOM      9   O  IDS B   1     -10.771  59.170  18.2370  0.00  0.00     0.000 O
ATOM     11  HD  IDS B   1     -10.222  59.055  18.8970  0.00  0.00     0.000 HD
ENDROOT
BRANCH 2 11
ATOM     11   O  IDS B   1     -12.268  60.320  15.4530  0.00  0.00     0.000 O
ATOM     12  @S  IDS B   1     -12.921  61.673  15.7960  0.00  0.00     0.000 S
ATOM     13   O  IDS B   1     -14.341  61.388  15.7750  0.00  0.00     0.000 OA
ATOM     14   O  IDS B   1     -12.446  62.041  17.1180  0.00  0.00     0.000 OA
ATOM     15   O  IDS B   1     -12.486  62.594  14.7650  0.00  0.00     0.000 OA
ENDBRANCH 2 11
BRANCH 5 16
ATOM     16 @CA  IDS B   1      -9.803  56.510  17.4370  0.00  0.00     0.000 C
ATOM     17   O  IDS B   1      -8.940  56.112  16.6570  0.00  0.00     0.000 OA
ATOM     18   O  IDS B   1      -9.601  56.364  18.6400  0.00  0.00     0.000 OA
ENDBRANCH 5 16
BRANCH 1 19
ATOM     19  O4  SGN B   2     -12.859  56.842  14.9620  0.00  0.00     0.000 O
BRANCH 19 23
ATOM     20  C1  SGN B   2     -13.549  54.009  12.0880  0.00  0.00     0.000 C
ATOM     21  C2  SGN B   2     -12.137  54.198  12.5980  0.00  0.00     0.000 C
ATOM     22  C3  SGN B   2     -12.179  54.789  13.9610  0.00  0.00     0.000 C
ATOM     23  C4  SGN B   2     -12.816  56.146  13.7680  0.00  0.00     0.000 C
ATOM     24  C5  SGN B   2     -14.217  55.865  13.3500  0.00  0.00     0.000 C
ATOM     25  O5  SGN B   2     -14.213  55.265  12.1060  0.00  0.00     0.000 O
ATOM     26   O  SGN B   2     -10.889  54.925  14.4450  0.00  0.00     0.000 O
ATOM     28  HD  SGN B   2     -10.110  55.196  14.7090  0.00  0.00     0.000 HD
BRANCH 21 30
ATOM     28   N  SGN B   2     -12.163  52.948  11.8970  0.00  0.00     0.000 N
ATOM     30  HD  SGN B   2     -11.961  52.424  12.5570  0.00  0.00     0.000 HD
ATOM     30 @NS  SGN B   2     -10.799  52.500  11.1370  0.00  0.00     0.000 S
ATOM     31   O  SGN B   2      -9.759  53.417  11.4630  0.00  0.00     0.000 OA
ATOM     32   O  SGN B   2     -10.537  51.220  11.6540  0.00  0.00     0.000 OA
ATOM     33   O  SGN B   2     -11.089  52.529   9.7530  0.00  0.00     0.000 OA
ENDBRANCH 21 30
BRANCH 24 34
ATOM     34   C  SGN B   2     -15.102  57.053  13.2500  0.00  0.00     0.000 C
ATOM     35   O  SGN B   2     -15.896  57.078  14.3830  0.00  0.00     0.000 O
ATOM     36  @S  SGN B   2     -16.787  58.256  14.7580  0.00  0.00     0.000 S
ATOM     37   O  SGN B   2     -18.064  57.947  14.1470  0.00  0.00     0.000 OA
ATOM     38   O  SGN B   2     -16.832  58.299  16.2010  0.00  0.00     0.000 OA
ATOM     39   O  SGN B   2     -16.130  59.426  14.1930  0.00  0.00     0.000 OA
ENDBRANCH 24 34
BRANCH 20 40
ATOM     40  O4  IDS B   3     -14.226  53.067  12.8620  0.00  0.00     0.000 O
BRANCH 40 44
ATOM     41  C1  IDS B   3     -16.582  50.474  13.0230  0.00  0.00     0.000 C
ATOM     42  C2  IDS B   3     -16.017  50.926  11.6780  0.00  0.00     0.000 C
ATOM     43  C3  IDS B   3     -15.987  52.449  11.4460  0.00  0.00     0.000 C
ATOM     44  C4  IDS B   3     -15.601  53.184  12.7140  0.00  0.00     0.000 C
ATOM     45  C5  IDS B   3     -16.315  52.616  13.9510  0.00  0.00     0.000 C
ATOM     46  O5  IDS B   3     -16.054  51.265  14.0770  0.00  0.00     0.000 O
ATOM     47   O  IDS B   3     -17.270  52.888  11.0520  0.00  0.00     0.000 O
ATOM     49  HD  IDS B   3     -16.407  52.917  11.1060  0.00  0.00     0.000 HD
BRANCH 42 49
ATOM     49   O  IDS B   3     -14.700  50.467  11.5720  0.00  0.00     0.000 O
ATOM     50   O  IDS B   3     -15.338  48.847   9.9860  0.00  0.00     0.000 OA
ATOM     51   O  IDS B   3     -13.281  49.984   9.7070  0.00  0.00     0.000 OA
ATOM     52   O  IDS B   3     -13.564  48.452  11.4790  0.00  0.00     0.000 OA
ATOM     53  @S  IDS B   3     -14.190  49.376  10.6260  0.00  0.00     0.000 S
ENDBRANCH 42 49
BRANCH 45 54
ATOM     54 @CA  IDS B   3     -16.006  53.325  15.2670  0.00  0.00     0.000 C
ATOM     55   O  IDS B   3     -14.890  53.376  15.7090  0.00  0.00     0.000 OA
ATOM     56   O  IDS B   3     -16.857  53.870  15.8880  0.00  0.00     0.000 OA
ENDBRANCH 45 54
BRANCH 41 57
ATOM     57  O4  SGN B   4     -17.970  50.528  12.9870  0.00  0.00     0.000 O
BRANCH 57 61
ATOM     58  C1  SGN B   4     -21.210  48.479  14.5050  0.00  0.00     0.000 C
ATOM     59  C2  SGN B   4     -20.064  48.707  15.4760  0.00  0.00     0.000 C
ATOM     60  C3  SGN B   4     -19.131  49.785  14.9320  0.00  0.00     0.000 C
ATOM     61  C4  SGN B   4     -18.634  49.427  13.5260  0.00  0.00     0.000 C
ATOM     62  C5  SGN B   4     -19.854  49.129  12.6600  0.00  0.00     0.000 C
ATOM     63  O5  SGN B   4     -20.667  48.128  13.2430  0.00  0.00     0.000 O
ATOM     64   O  SGN B   4     -18.014  49.895  15.7890  0.00  0.00     0.000 O
ATOM     66  HD  SGN B   4     -17.239  49.739  15.4340  0.00  0.00     0.000 HD
BRANCH 59 68
ATOM     66   N  SGN B   4     -20.115  47.836  16.6320  0.00  0.00     0.000 N
ATOM     68  HD  SGN B   4     -20.271  47.778  15.7820  0.00  0.00     0.000 HD
ATOM     68 @NS  SGN B   4     -21.334  47.984  17.7190  0.00  0.00     0.000 S
ATOM     69   O  SGN B   4     -21.635  49.378  17.8690  0.00  0.00     0.000 OA
ATOM     70   O  SGN B   4     -22.447  47.267  17.1700  0.00  0.00     0.000 OA
ATOM     71   O  SGN B   4     -20.814  47.398  18.9170  0.00  0.00     0.000 OA
ENDBRANCH 59 68
BRANCH 62 72
ATOM     72   C  SGN B   4     -19.485  48.636  11.2690  0.00  0.00     0.000 C
ATOM     73   O  SGN B   4     -18.470  47.697  11.4610  0.00  0.00     0.000 O
ATOM     74  @S  SGN B   4     -18.173  46.451  10.6080  0.00  0.00     0.000 S
ATOM     75   O  SGN B   4     -17.934  46.893   9.2840  0.00  0.00     0.000 OA
ATOM     76   O  SGN B   4     -17.004  45.884  11.2110  0.00  0.00     0.000 OA
ATOM     77   O  SGN B   4     -19.342  45.641  10.6830  0.00  0.00     0.000 OA
ENDBRANCH 62 72
BRANCH 58 78
ATOM     78  O4  IDS B   5     -22.027  49.630  14.4360  0.00  0.00     0.000 O
BRANCH 78 82
ATOM     79  C1  IDS B   5     -24.457  52.088  14.2160  0.00  0.00     0.000 C
ATOM     80  C2  IDS B   5     -24.180  51.449  15.5420  0.00  0.00     0.000 C
ATOM     81  C3  IDS B   5     -24.172  49.923  15.5020  0.00  0.00     0.000 C
ATOM     82  C4  IDS B   5     -23.409  49.374  14.3140  0.00  0.00     0.000 C
ATOM     83  C5  IDS B   5     -23.920  50.065  13.0910  0.00  0.00     0.000 C
ATOM     84  O5  IDS B   5     -23.693  51.457  13.2040  0.00  0.00     0.000 O
ATOM     85   O  IDS B   5     -25.506  49.489  15.3890  0.00  0.00     0.000 O
ATOM     87  HD  IDS B   5     -24.829  49.287  14.8880  0.00  0.00     0.000 HD
BRANCH 80 87
ATOM     87   O  IDS B   5     -22.933  51.845  15.9580  0.00  0.00     0.000 O
ATOM     88  @S  IDS B   5     -22.350  53.259  15.9050  0.00  0.00     0.000 S
ATOM     89   O  IDS B   5     -23.307  54.076  16.5610  0.00  0.00     0.000 OA
ATOM     90   O  IDS B   5     -21.099  53.177  16.5720  0.00  0.00     0.000 OA
ATOM     91   O  IDS B   5     -22.201  53.572  14.5270  0.00  0.00     0.000 OA
ENDBRANCH 80 87
BRANCH 83 92
ATOM     92 @CA  IDS B   5     -23.381  49.487  11.7880  0.00  0.00     0.000 C
ATOM     93   O  IDS B   5     -23.417  48.274  11.5700  0.00  0.00     0.000 OA
ATOM     94   O  IDS B   5     -22.892  50.226  10.9260  0.00  0.00     0.000 OA
ENDBRANCH 83 92
BRANCH 79 95
ATOM     95  O4  SGN B   6     -25.820  52.038  13.9520  0.00  0.00     0.000 O
BRANCH 95 99
ATOM     96  C1  SGN B   6     -28.329  53.324  10.9090  0.00  0.00     0.000 C
ATOM     97  C2  SGN B   6     -27.167  52.434  10.4830  0.00  0.00     0.000 C
ATOM     98  C3  SGN B   6     -26.738  51.652  11.7260  0.00  0.00     0.000 C
ATOM     99  C4  SGN B   6     -26.212  52.690  12.7580  0.00  0.00     0.000 C
ATOM    100  C5  SGN B   6     -27.398  53.646  13.0720  0.00  0.00     0.000 C
ATOM    101  O5  SGN B   6     -27.905  54.253  11.8870  0.00  0.00     0.000 O
BRANCH 97 104
ATOM    102   N  SGN B   6     -27.801  52.793   9.2110  0.00  0.00     0.000 N
ATOM    104  HD  SGN B   6     -28.172  52.092   8.8630  0.00  0.00     0.000 HD
ATOM    104 @NS  SGN B   6     -27.199  52.098   7.8300  0.00  0.00     0.000 S
ATOM    105   O  SGN B   6     -26.130  51.204   8.2180  0.00  0.00     0.000 OA
ATOM    106   O  SGN B   6     -28.297  51.398   7.2040  0.00  0.00     0.000 OA
ATOM    107   O  SGN B   6     -26.705  53.188   7.0180  0.00  0.00     0.000 OA
ENDBRANCH 97 104
BRANCH 100 108
ATOM    108   C  SGN B   6     -27.101  54.789  14.0350  0.00  0.00     0.000 C
ATOM    109   O  SGN B   6     -26.263  55.725  13.4030  0.00  0.00     0.000 O
ATOM    110  @S  SGN B   6     -25.714  57.049  14.0470  0.00  0.00     0.000 S
ATOM    111   O  SGN B   6     -25.366  56.714  15.4070  0.00  0.00     0.000 OA
ATOM    112   O  SGN B   6     -24.551  57.435  13.2640  0.00  0.00     0.000 OA
ATOM    113   O  SGN B   6     -26.797  58.003  13.9660  0.00  0.00     0.000 OA
ENDBRANCH 100 108
ENDBRANCH 95 99
ENDBRANCH 79 95
ENDBRANCH 78 82
ENDBRANCH 58 78
ENDBRANCH 57 61
ENDBRANCH 41 57
ENDBRANCH 40 44
ENDBRANCH 20 40
ENDBRANCH 19 23
ENDBRANCH 1 19
TORSDOF 22
ENDMDL
MODEL 44
REMARK VINA RESULT:       2.0      3.761      9.790
ROOT
ATOM      1  C1  IDS B   1     -20.528  48.014  10.6460  0.00  0.00     0.000 C
ATOM      2  C2  IDS B   1     -21.776  47.510  11.3190  0.00  0.00     0.000 C
ATOM      3  C3  IDS B   1     -22.622  48.568  12.0660  0.00  0.00     0.000 C
ATOM      4  C4  IDS B   1     -22.489  50.020  11.4710  0.00  0.00     0.000 C
ATOM      5  C5  IDS B   1     -21.120  50.262  10.7900  0.00  0.00     0.000 C
ATOM      6  O5  IDS B   1     -20.816  49.198   9.9290  0.00  0.00     0.000 O
ATOM      7   O  IDS B   1     -22.226  48.538  13.4340  0.00  0.00     0.000 O
ATOM      9  HD  IDS B   1     -22.565  49.313  13.2480  0.00  0.00     0.000 HD
ATOM      9   O  IDS B   1     -23.494  50.177  10.4950  0.00  0.00     0.000 O
ATOM     11  HD  IDS B   1     -23.834  50.952  10.3100  0.00  0.00     0.000 HD
ENDROOT
BRANCH 2 11
ATOM     11   O  IDS B   1     -22.613  46.932  10.3770  0.00  0.00     0.000 O
ATOM     12  @S  IDS B   1     -23.835  46.056  10.7170  0.00  0.00     0.000 S
ATOM     13   O  IDS B   1     -23.509  45.494  12.0120  0.00  0.00     0.000 OA
ATOM     14   O  IDS B   1     -24.983  46.944  10.7680  0.00  0.00     0.000 OA
ATOM     15   O  IDS B   1     -23.927  45.077   9.6530  0.00  0.00     0.000 OA
ENDBRANCH 2 11
BRANCH 5 16
ATOM     16 @CA  IDS B   1     -20.950  51.586  10.0520  0.00  0.00     0.000 C
ATOM     17   O  IDS B   1     -21.885  52.116   9.4550  0.00  0.00     0.000 OA
ATOM     18   O  IDS B   1     -19.866  52.165  10.0510  0.00  0.00     0.000 OA
ENDBRANCH 5 16
BRANCH 1 19
ATOM     19  O4  SGN B   2     -19.559  48.255  11.6450  0.00  0.00     0.000 O
BRANCH 19 23
ATOM     20  C1  SGN B   2     -15.524  47.598  11.8540  0.00  0.00     0.000 C
ATOM     21  C2  SGN B   2     -16.050  48.558  10.8100  0.00  0.00     0.000 C
ATOM     22  C3  SGN B   2     -17.364  49.095  11.2510  0.00  0.00     0.000 C
ATOM     23  C4  SGN B   2     -18.270  47.887  11.3060  0.00  0.00     0.000 C
ATOM     24  C5  SGN B   2     -17.730  47.042  12.4080  0.00  0.00     0.000 C
ATOM     25  O5  SGN B   2     -16.482  46.568  12.0530  0.00  0.00     0.000 O
ATOM     26   O  SGN B   2     -17.828  50.005  10.3170  0.00  0.00     0.000 O
ATOM     28  HD  SGN B   2     -18.237  50.431   9.6840  0.00  0.00     0.000 HD
BRANCH 21 30
ATOM     28   N  SGN B   2     -14.905  49.420  10.7920  0.00  0.00     0.000 N
ATOM     30  HD  SGN B   2     -15.261  50.101  10.3910  0.00  0.00     0.000 HD
ATOM     30 @NS  SGN B   2     -13.870  49.244   9.5520  0.00  0.00     0.000 S
ATOM     31   O  SGN B   2     -14.417  48.325   8.6120  0.00  0.00     0.000 OA
ATOM     32   O  SGN B   2     -13.777  50.539   9.0130  0.00  0.00     0.000 OA
ATOM     33   O  SGN B   2     -12.667  48.751  10.1080  0.00  0.00     0.000 OA
ENDBRANCH 21 30
BRANCH 24 34
ATOM     34   C  SGN B   2     -18.552  45.860  12.7650  0.00  0.00     0.000 C
ATOM     35   O  SGN B   2     -19.281  46.184  13.8950  0.00  0.00     0.000 O
ATOM     36  @S  SGN B   2     -20.402  45.314  14.4510  0.00  0.00     0.000 S
ATOM     37   O  SGN B   2     -19.741  44.446  15.4040  0.00  0.00     0.000 OA
ATOM     38   O  SGN B   2     -21.363  46.209  15.0520  0.00  0.00     0.000 OA
ATOM     39   O  SGN B   2     -20.949  44.614  13.2960  0.00  0.00     0.000 OA
ENDBRANCH 24 34
BRANCH 20 40
ATOM     40  O4  IDS B   3     -15.250  48.271  13.0430  0.00  0.00     0.000 O
BRANCH 40 44
ATOM     41  C1  IDS B   3     -13.243  49.406  15.6870  0.00  0.00     0.000 C
ATOM     42  C2  IDS B   3     -12.637  49.150  14.3080  0.00  0.00     0.000 C
ATOM     43  C3  IDS B   3     -13.031  47.816  13.6450  0.00  0.00     0.000 C
ATOM     44  C4  IDS B   3     -14.489  47.491  13.9040  0.00  0.00     0.000 C
ATOM     45  C5  IDS B   3     -14.892  47.766  15.3610  0.00  0.00     0.000 C
ATOM     46  O5  IDS B   3     -14.625  49.080  15.6930  0.00  0.00     0.000 O
ATOM     47   O  IDS B   3     -12.243  46.775  14.1840  0.00  0.00     0.000 O
ATOM     49  HD  IDS B   3     -12.727  47.172  13.5850  0.00  0.00     0.000 HD
BRANCH 42 49
ATOM     49   O  IDS B   3     -13.043  50.174  13.4470  0.00  0.00     0.000 O
ATOM     50   O  IDS B   3     -11.238  51.527  14.1220  0.00  0.00     0.000 OA
ATOM     51   O  IDS B   3     -11.883  51.520  11.8440  0.00  0.00     0.000 OA
ATOM     52   O  IDS B   3     -13.292  52.476  13.4790  0.00  0.00     0.000 OA
ATOM     53  @S  IDS B   3     -12.318  51.501  13.2060  0.00  0.00     0.000 S
ENDBRANCH 42 49
BRANCH 45 54
ATOM     54 @CA  IDS B   3     -16.340  47.431  15.7130  0.00  0.00     0.000 C
ATOM     55   O  IDS B   3     -17.205  48.265  15.6840  0.00  0.00     0.000 OA
ATOM     56   O  IDS B   3     -16.664  46.328  16.0050  0.00  0.00     0.000 OA
ENDBRANCH 45 54
BRANCH 41 57
ATOM     57  O4  SGN B   4     -12.540  48.686  16.6460  0.00  0.00     0.000 O
BRANCH 57 61
ATOM     58  C1  SGN B   4     -13.076  51.660  19.4510  0.00  0.00     0.000 C
ATOM     59  C2  SGN B   4     -11.695  51.593  18.8200  0.00  0.00     0.000 C
ATOM     60  C3  SGN B   4     -11.744  50.740  17.5560  0.00  0.00     0.000 C
ATOM     61  C4  SGN B   4     -12.310  49.347  17.8520  0.00  0.00     0.000 C
ATOM     62  C5  SGN B   4     -13.649  49.527  18.5630  0.00  0.00     0.000 C
ATOM     63  O5  SGN B   4     -13.513  50.338  19.7150  0.00  0.00     0.000 O
ATOM     64   O  SGN B   4     -10.431  50.594  17.0550  0.00  0.00     0.000 O
ATOM     66  HD  SGN B   4     -10.129  49.785  16.9990  0.00  0.00     0.000 HD
BRANCH 59 68
ATOM     66   N  SGN B   4     -10.764  52.297  19.6790  0.00  0.00     0.000 N
ATOM     68  HD  SGN B   4     -11.495  51.841  19.7680  0.00  0.00     0.000 HD
ATOM     68 @NS  SGN B   4     -10.766  53.936  19.7220  0.00  0.00     0.000 S
ATOM     69   O  SGN B   4     -11.010  54.421  18.3960  0.00  0.00     0.000 OA
ATOM     70   O  SGN B   4     -11.823  54.310  20.6170  0.00  0.00     0.000 OA
ATOM     71   O  SGN B   4      -9.463  54.280  20.2070  0.00  0.00     0.000 OA
ENDBRANCH 59 68
BRANCH 62 72
ATOM     72   C  SGN B   4     -14.255  48.210  19.0240  0.00  0.00     0.000 C
ATOM     73   O  SGN B   4     -13.943  48.110  20.3820  0.00  0.00     0.000 O
ATOM     74  @S  SGN B   4     -14.771  47.426  21.4840  0.00  0.00     0.000 S
ATOM     75   O  SGN B   4     -14.939  46.071  21.1070  0.00  0.00     0.000 OA
ATOM     76   O  SGN B   4     -13.969  47.566  22.6620  0.00  0.00     0.000 OA
ATOM     77   O  SGN B   4     -16.017  48.114  21.5180  0.00  0.00     0.000 OA
ENDBRANCH 62 72
BRANCH 58 78
ATOM     78  O4  IDS B   5     -13.964  52.360  18.6040  0.00  0.00     0.000 O
BRANCH 78 82
ATOM     79  C1  IDS B   5     -16.267  54.405  17.0190  0.00  0.00     0.000 C
ATOM     80  C2  IDS B   5     -15.039  55.015  17.6230  0.00  0.00     0.000 C
ATOM     81  C3  IDS B   5     -14.781  54.584  19.0650  0.00  0.00     0.000 C
ATOM     82  C4  IDS B   5     -14.968  53.094  19.2710  0.00  0.00     0.000 C
ATOM     83  C5  IDS B   5     -16.298  52.723  18.6970  0.00  0.00     0.000 C
ATOM     84  O5  IDS B   5     -16.316  53.021  17.3140  0.00  0.00     0.000 O
ATOM     85   O  IDS B   5     -15.712  55.248  19.8850  0.00  0.00     0.000 O
ATOM     87  HD  IDS B   5     -15.548  54.399  19.8330  0.00  0.00     0.000 HD
BRANCH 80 87
ATOM     87   O  IDS B   5     -13.953  54.615  16.8850  0.00  0.00     0.000 O
ATOM     88  @S  IDS B   5     -13.244  55.408  15.7850  0.00  0.00     0.000 S
ATOM     89   O  IDS B   5     -12.931  56.659  16.3760  0.00  0.00     0.000 OA
ATOM     90   O  IDS B   5     -12.109  54.630  15.4300  0.00  0.00     0.000 OA
ATOM     91   O  IDS B   5     -14.174  55.513  14.7160  0.00  0.00     0.000 OA
ENDBRANCH 80 87
BRANCH 83 92
ATOM     92 @CA  IDS B   5     -16.716  51.288  18.9940  0.00  0.00     0.000 C
ATOM     93   O  IDS B   5     -16.629  50.825  20.1340  0.00  0.00     0.000 OA
ATOM     94   O  IDS B   5     -17.145  50.558  18.0920  0.00  0.00     0.000 OA
ENDBRANCH 83 92
BRANCH 79 95
ATOM     95  O4  SGN B   6     -17.392  55.080  17.4750  0.00  0.00     0.000 O
BRANCH 95 99
ATOM     96  C1  SGN B   6     -21.421  55.144  16.4880  0.00  0.00     0.000 C
ATOM     97  C2  SGN B   6     -20.792  53.763  16.6300  0.00  0.00     0.000 C
ATOM     98  C3  SGN B   6     -19.548  53.938  17.5020  0.00  0.00     0.000 C
ATOM     99  C4  SGN B   6     -18.564  54.850  16.7140  0.00  0.00     0.000 C
ATOM    100  C5  SGN B   6     -19.294  56.205  16.4920  0.00  0.00     0.000 C
ATOM    101  O5  SGN B   6     -20.536  56.022  15.8190  0.00  0.00     0.000 O
BRANCH 97 104
ATOM    102   N  SGN B   6     -21.146  52.344  16.7270  0.00  0.00     0.000 N
ATOM    104  HD  SGN B   6     -21.211  52.005  15.9330  0.00  0.00     0.000 HD
ATOM    104 @NS  SGN B   6     -22.613  51.874  16.1100  0.00  0.00     0.000 S
ATOM    105   O  SGN B   6     -23.246  53.045  15.5430  0.00  0.00     0.000 OA
ATOM    106   O  SGN B   6     -22.340  50.864  15.1140  0.00  0.00     0.000 OA
ATOM    107   O  SGN B   6     -23.370  51.357  17.2280  0.00  0.00     0.000 OA
ENDBRANCH 97 104
BRANCH 100 108
ATOM    108   C  SGN B   6     -18.532  57.253  15.6880  0.00  0.00     0.000 C
ATOM    109   O  SGN B   6     -18.588  58.487  16.3590  0.00  0.00     0.000 O
ATOM    110  @S  SGN B   6     -17.936  59.830  15.8680  0.00  0.00     0.000 S
ATOM    111   O  SGN B   6     -18.158  59.881  14.4430  0.00  0.00     0.000 OA
ATOM    112   O  SGN B   6     -18.627  60.902  16.5680  0.00  0.00     0.000 OA
ATOM    113   O  SGN B   6     -16.536  59.735  16.2140  0.00  0.00     0.000 OA
ENDBRANCH 100 108
ENDBRANCH 95 99
ENDBRANCH 79 95
ENDBRANCH 78 82
ENDBRANCH 58 78
ENDBRANCH 57 61
ENDBRANCH 41 57
ENDBRANCH 40 44
ENDBRANCH 20 40
ENDBRANCH 19 23
ENDBRANCH 1 19
TORSDOF 22
ENDMDL
MODEL 45
REMARK VINA RESULT:       2.1      5.023     10.807
ROOT
ATOM      1  C1  IDS B   1     -17.329  51.858  13.5010  0.00  0.00     0.000 C
ATOM      2  C2  IDS B   1     -16.118  51.150  12.9540  0.00  0.00     0.000 C
ATOM      3  C3  IDS B   1     -15.539  51.714  11.6340  0.00  0.00     0.000 C
ATOM      4  C4  IDS B   1     -15.805  53.252  11.4320  0.00  0.00     0.000 C
ATOM      5  C5  IDS B   1     -17.094  53.733  12.1400  0.00  0.00     0.000 C
ATOM      6  O5  IDS B   1     -17.126  53.256  13.4590  0.00  0.00     0.000 O
ATOM      7   O  IDS B   1     -16.100  50.954  10.5680  0.00  0.00     0.000 O
ATOM      9  HD  IDS B   1     -15.856  51.730  10.2720  0.00  0.00     0.000 HD
ATOM      9   O  IDS B   1     -14.715  53.952  11.9900  0.00  0.00     0.000 O
ATOM     11  HD  IDS B   1     -14.471  54.729  11.6940  0.00  0.00     0.000 HD
ENDROOT
BRANCH 2 11
ATOM     11   O  IDS B   1     -15.091  51.197  13.8830  0.00  0.00     0.000 O
ATOM     12  @S  IDS B   1     -14.608  49.989  14.7100  0.00  0.00     0.000 S
ATOM     13   O  IDS B   1     -15.773  49.131  14.7830  0.00  0.00     0.000 OA
ATOM     14   O  IDS B   1     -13.517  49.385  13.9660  0.00  0.00     0.000 OA
ATOM     15   O  IDS B   1     -14.187  50.527  15.9880  0.00  0.00     0.000 OA
ENDBRANCH 2 11
BRANCH 5 16
ATOM     16 @CA  IDS B   1     -17.358  55.236  12.1300  0.00  0.00     0.000 C
ATOM     17   O  IDS B   1     -18.256  55.737  12.8030  0.00  0.00     0.000 OA
ATOM     18   O  IDS B   1     -16.662  55.986  11.4500  0.00  0.00     0.000 OA
ENDBRANCH 5 16
BRANCH 1 19
ATOM     19  O4  SGN B   2     -18.444  51.487  12.7170  0.00  0.00     0.000 O
BRANCH 19 23
ATOM     20  C1  SGN B   2     -22.117  50.014  13.7630  0.00  0.00     0.000 C
ATOM     21  C2  SGN B   2     -21.426  50.977  14.7030  0.00  0.00     0.000 C
ATOM     22  C3  SGN B   2     -20.465  51.812  13.9360  0.00  0.00     0.000 C
ATOM     23  C4  SGN B   2     -19.446  50.830  13.4050  0.00  0.00     0.000 C
ATOM     24  C5  SGN B   2     -20.190  49.982  12.4330  0.00  0.00     0.000 C
ATOM     25  O5  SGN B   2     -21.131  49.229  13.1070  0.00  0.00     0.000 O
ATOM     26   O  SGN B   2     -19.862  52.721  14.7880  0.00  0.00     0.000 O
ATOM     28  HD  SGN B   2     -19.333  53.172  15.3050  0.00  0.00     0.000 HD
BRANCH 21 30
ATOM     28   N  SGN B   2     -21.951  50.308  15.8570  0.00  0.00     0.000 N
ATOM     30  HD  SGN B   2     -22.563  49.836  15.4670  0.00  0.00     0.000 HD
ATOM     30 @NS  SGN B   2     -23.102  51.086  16.7000  0.00  0.00     0.000 S
ATOM     31   O  SGN B   2     -23.477  52.268  16.0000  0.00  0.00     0.000 OA
ATOM     32   O  SGN B   2     -24.157  50.159  16.7510  0.00  0.00     0.000 OA
ATOM     33   O  SGN B   2     -22.530  51.396  17.9560  0.00  0.00     0.000 OA
ENDBRANCH 21 30
BRANCH 24 34
ATOM     34   C  SGN B   2     -19.360  49.032  11.6520  0.00  0.00     0.000 C
ATOM     35   O  SGN B   2     -19.210  49.555  10.3800  0.00  0.00     0.000 O
ATOM     36  @S  SGN B   2     -18.249  48.984   9.3440  0.00  0.00     0.000 S
ATOM     37   O  SGN B   2     -19.048  48.025   8.6080  0.00  0.00     0.000 OA
ATOM     38   O  SGN B   2     -17.795  50.096   8.5420  0.00  0.00     0.000 OA
ATOM     39   O  SGN B   2     -17.169  48.384  10.1150  0.00  0.00     0.000 OA
ENDBRANCH 24 34
BRANCH 20 40
ATOM     40  O4  IDS B   3     -22.905  50.708  12.8450  0.00  0.00     0.000 O
BRANCH 40 44
ATOM     41  C1  IDS B   3     -25.834  51.300  11.0080  0.00  0.00     0.000 C
ATOM     42  C2  IDS B   3     -24.979  52.466  11.5020  0.00  0.00     0.000 C
ATOM     43  C3  IDS B   3     -24.533  52.388  12.9750  0.00  0.00     0.000 C
ATOM     44  C4  IDS B   3     -24.169  50.968  13.3570  0.00  0.00     0.000 C
ATOM     45  C5  IDS B   3     -25.178  49.945  12.8120  0.00  0.00     0.000 C
ATOM     46  O5  IDS B   3     -25.287  50.063  11.4400  0.00  0.00     0.000 O
ATOM     47   O  IDS B   3     -25.592  52.814  13.8070  0.00  0.00     0.000 O
ATOM     49  HD  IDS B   3     -24.766  52.669  13.5890  0.00  0.00     0.000 HD
BRANCH 42 49
ATOM     49   O  IDS B   3     -23.819  52.527  10.7230  0.00  0.00     0.000 O
ATOM     50   O  IDS B   3     -23.504  54.794  11.2820  0.00  0.00     0.000 OA
ATOM     51   O  IDS B   3     -21.617  53.371  11.1320  0.00  0.00     0.000 OA
ATOM     52   O  IDS B   3     -22.828  53.953   9.1910  0.00  0.00     0.000 OA
ATOM     53  @S  IDS B   3     -22.885  53.732  10.5780  0.00  0.00     0.000 S
ENDBRANCH 42 49
BRANCH 45 54
ATOM     54 @CA  IDS B   3     -24.901  48.491  13.1840  0.00  0.00     0.000 C
ATOM     55   O  IDS B   3     -24.958  48.108  14.3210  0.00  0.00     0.000 OA
ATOM     56   O  IDS B   3     -24.642  47.681  12.3560  0.00  0.00     0.000 OA
ENDBRANCH 45 54
BRANCH 41 57
ATOM     57  O4  SGN B   4     -27.142  51.463  11.4460  0.00  0.00     0.000 O
BRANCH 57 61
ATOM     58  C1  SGN B   4     -30.975  50.312  10.4540  0.00  0.00     0.000 C
ATOM     59  C2  SGN B   4     -30.121  49.247  11.1210  0.00  0.00     0.000 C
ATOM     60  C3  SGN B   4     -28.905  49.894  11.7770  0.00  0.00     0.000 C
ATOM     61  C4  SGN B   4     -28.106  50.722  10.7640  0.00  0.00     0.000 C
ATOM     62  C5  SGN B   4     -29.071  51.693  10.0900  0.00  0.00     0.000 C
ATOM     63  O5  SGN B   4     -30.172  51.011   9.5180  0.00  0.00     0.000 O
ATOM     64   O  SGN B   4     -28.067  48.876  12.2850  0.00  0.00     0.000 O
ATOM     66  HD  SGN B   4     -27.263  48.844  11.9650  0.00  0.00     0.000 HD
BRANCH 59 68
ATOM     66   N  SGN B   4     -30.968  48.595  12.0990  0.00  0.00     0.000 N
ATOM     68  HD  SGN B   4     -30.141  48.556  11.8430  0.00  0.00     0.000 HD
ATOM     68 @NS  SGN B   4     -32.067  47.476  11.6190  0.00  0.00     0.000 S
ATOM     69   O  SGN B   4     -32.628  47.904  10.3710  0.00  0.00     0.000 OA
ATOM     70   O  SGN B   4     -31.345  46.246  11.4710  0.00  0.00     0.000 OA
ATOM     71   O  SGN B   4     -33.029  47.447  12.6770  0.00  0.00     0.000 OA
ENDBRANCH 59 68
BRANCH 62 72
ATOM     72   C  SGN B   4     -28.421  52.489   8.9680  0.00  0.00     0.000 C
ATOM     73   O  SGN B   4     -28.558  53.830   9.3320  0.00  0.00     0.000 O
ATOM     74  @S  SGN B   4     -27.602  54.991   9.0060  0.00  0.00     0.000 S
ATOM     75   O  SGN B   4     -27.493  55.066   7.5970  0.00  0.00     0.000 OA
ATOM     76   O  SGN B   4     -28.246  56.143   9.5630  0.00  0.00     0.000 OA
ATOM     77   O  SGN B   4     -26.357  54.649   9.6070  0.00  0.00     0.000 OA
ENDBRANCH 62 72
BRANCH 58 78
ATOM     78  O4  IDS B   5     -31.532  51.170  11.4290  0.00  0.00     0.000 O
BRANCH 78 82
ATOM     79  C1  IDS B   5     -33.572  52.827  13.6860  0.00  0.00     0.000 C
ATOM     80  C2  IDS B   5     -33.772  51.360  13.4580  0.00  0.00     0.000 C
ATOM     81  C3  IDS B   5     -33.873  50.973  11.9850  0.00  0.00     0.000 C
ATOM     82  C4  IDS B   5     -32.824  51.653  11.1290  0.00  0.00     0.000 C
ATOM     83  C5  IDS B   5     -32.873  53.117  11.4330  0.00  0.00     0.000 C
ATOM     84  O5  IDS B   5     -32.583  53.325  12.8020  0.00  0.00     0.000 O
ATOM     85   O  IDS B   5     -35.136  51.383  11.5180  0.00  0.00     0.000 O
ATOM     87  HD  IDS B   5     -34.355  51.565  11.1900  0.00  0.00     0.000 HD
BRANCH 80 87
ATOM     87   O  IDS B   5     -32.689  50.693  13.9740  0.00  0.00     0.000 O
ATOM     88  @S  IDS B   5     -32.625  49.922  15.2940  0.00  0.00     0.000 S
ATOM     89   O  IDS B   5     -33.711  49.012  15.2430  0.00  0.00     0.000 OA
ATOM     90   O  IDS B   5     -31.346  49.304  15.3090  0.00  0.00     0.000 OA
ATOM     91   O  IDS B   5     -32.759  50.894  16.3230  0.00  0.00     0.000 OA
ENDBRANCH 80 87
BRANCH 83 92
ATOM     92 @CA  IDS B   5     -32.004  53.965  10.5130  0.00  0.00     0.000 C
ATOM     93   O  IDS B   5     -31.153  54.730  10.9720  0.00  0.00     0.000 OA
ATOM     94   O  IDS B   5     -32.140  53.903   9.2850  0.00  0.00     0.000 OA
ENDBRANCH 83 92
BRANCH 79 95
ATOM     95  O4  SGN B   6     -34.784  53.489  13.5430  0.00  0.00     0.000 O
BRANCH 95 99
ATOM     96  C1  SGN B   6     -36.369  57.125  14.7580  0.00  0.00     0.000 C
ATOM     97  C2  SGN B   6     -35.247  57.198  13.7290  0.00  0.00     0.000 C
ATOM     98  C3  SGN B   6     -35.205  55.837  13.0330  0.00  0.00     0.000 C
ATOM     99  C4  SGN B   6     -34.817  54.785  14.1120  0.00  0.00     0.000 C
ATOM    100  C5  SGN B   6     -35.930  54.831  15.1980  0.00  0.00     0.000 C
ATOM    101  O5  SGN B   6     -36.080  56.142  15.7330  0.00  0.00     0.000 O
BRANCH 97 104
ATOM    102   N  SGN B   6     -35.785  58.506  13.3460  0.00  0.00     0.000 N
ATOM    104  HD  SGN B   6     -35.490  58.724  12.5610  0.00  0.00     0.000 HD
ATOM    104 @NS  SGN B   6     -34.708  59.752  13.1480  0.00  0.00     0.000 S
ATOM    105   O  SGN B   6     -33.380  59.226  13.3810  0.00  0.00     0.000 OA
ATOM    106   O  SGN B   6     -34.874  60.235  11.7970  0.00  0.00     0.000 OA
ATOM    107   O  SGN B   6     -35.060  60.746  14.1370  0.00  0.00     0.000 OA
ENDBRANCH 97 104
BRANCH 100 108
ATOM    108   C  SGN B   6     -35.735  53.908  16.3960  0.00  0.00     0.000 C
ATOM    109   O  SGN B   6     -35.267  54.657  17.4900  0.00  0.00     0.000 O
ATOM    110  @S  SGN B   6     -34.932  54.088  18.9160  0.00  0.00     0.000 S
ATOM    111   O  SGN B   6     -34.275  52.823  18.6950  0.00  0.00     0.000 OA
ATOM    112   O  SGN B   6     -34.053  55.059  19.5490  0.00  0.00     0.000 OA
ATOM    113   O  SGN B   6     -36.203  53.948  19.5900  0.00  0.00     0.000 OA
ENDBRANCH 100 108
ENDBRANCH 95 99
ENDBRANCH 79 95
ENDBRANCH 78 82
ENDBRANCH 58 78
ENDBRANCH 57 61
ENDBRANCH 41 57
ENDBRANCH 40 44
ENDBRANCH 20 40
ENDBRANCH 19 23
ENDBRANCH 1 19
TORSDOF 22
ENDMDL
MODEL 46
REMARK VINA RESULT:       2.1      3.244      9.302
ROOT
ATOM      1  C1  IDS B   1     -26.543  54.540  11.1780  0.00  0.00     0.000 C
ATOM      2  C2  IDS B   1     -26.513  54.805   9.6960  0.00  0.00     0.000 C
ATOM      3  C3  IDS B   1     -27.508  55.870   9.1750  0.00  0.00     0.000 C
ATOM      4  C4  IDS B   1     -27.875  56.968  10.2420  0.00  0.00     0.000 C
ATOM      5  C5  IDS B   1     -27.780  56.444  11.6950  0.00  0.00     0.000 C
ATOM      6  O5  IDS B   1     -26.568  55.764  11.8830  0.00  0.00     0.000 O
ATOM      7   O  IDS B   1     -28.672  55.180   8.7310  0.00  0.00     0.000 O
ATOM      9  HD  IDS B   1     -28.879  55.995   8.9340  0.00  0.00     0.000 HD
ATOM      9   O  IDS B   1     -26.956  58.028  10.1000  0.00  0.00     0.000 O
ATOM     11  HD  IDS B   1     -27.164  58.844  10.3040  0.00  0.00     0.000 HD
ENDROOT
BRANCH 2 11
ATOM     11   O  IDS B   1     -25.249  55.235   9.3250  0.00  0.00     0.000 O
ATOM     12  @S  IDS B   1     -24.812  55.504   7.8720  0.00  0.00     0.000 S
ATOM     13   O  IDS B   1     -25.676  54.647   7.0850  0.00  0.00     0.000 OA
ATOM     14   O  IDS B   1     -25.048  56.915   7.6200  0.00  0.00     0.000 OA
ATOM     15   O  IDS B   1     -23.408  55.149   7.8090  0.00  0.00     0.000 OA
ENDBRANCH 2 11
BRANCH 5 16
ATOM     16 @CA  IDS B   1     -27.970  57.473  12.8050  0.00  0.00     0.000 C
ATOM     17   O  IDS B   1     -28.945  57.442  13.5530  0.00  0.00     0.000 OA
ATOM     18   O  IDS B   1     -27.136  58.358  12.9860  0.00  0.00     0.000 OA
ENDBRANCH 5 16
BRANCH 1 19
ATOM     19  O4  SGN B   2     -27.695  53.773  11.4620  0.00  0.00     0.000 O
BRANCH 19 23
ATOM     20  C1  SGN B   2     -25.737  50.376  12.6380  0.00  0.00     0.000 C
ATOM     21  C2  SGN B   2     -26.805  50.267  11.5720  0.00  0.00     0.000 C
ATOM     22  C3  SGN B   2     -26.960  51.579  10.8920  0.00  0.00     0.000 C
ATOM     23  C4  SGN B   2     -27.444  52.515  11.9760  0.00  0.00     0.000 C
ATOM     24  C5  SGN B   2     -26.306  52.628  12.9310  0.00  0.00     0.000 C
ATOM     25  O5  SGN B   2     -26.099  51.408  13.5440  0.00  0.00     0.000 O
ATOM     26   O  SGN B   2     -27.908  51.470   9.8890  0.00  0.00     0.000 O
ATOM     28  HD  SGN B   2     -28.612  51.497   9.3860  0.00  0.00     0.000 HD
BRANCH 21 30
ATOM     28   N  SGN B   2     -27.471  49.023  11.8270  0.00  0.00     0.000 N
ATOM     30  HD  SGN B   2     -27.068  48.807  12.5620  0.00  0.00     0.000 HD
ATOM     30 @NS  SGN B   2     -26.856  47.698  11.1140  0.00  0.00     0.000 S
ATOM     31   O  SGN B   2     -25.633  48.039  10.4680  0.00  0.00     0.000 OA
ATOM     32   O  SGN B   2     -26.646  46.814  12.1850  0.00  0.00     0.000 OA
ATOM     33   O  SGN B   2     -27.825  47.268  10.1770  0.00  0.00     0.000 OA
ENDBRANCH 21 30
BRANCH 24 34
ATOM     34   C  SGN B   2     -26.483  53.627  14.0140  0.00  0.00     0.000 C
ATOM     35   O  SGN B   2     -25.523  53.372  14.9770  0.00  0.00     0.000 O
ATOM     36  @S  SGN B   2     -25.236  54.308  16.1460  0.00  0.00     0.000 S
ATOM     37   O  SGN B   2     -26.101  53.831  17.2060  0.00  0.00     0.000 OA
ATOM     38   O  SGN B   2     -23.828  54.179  16.4440  0.00  0.00     0.000 OA
ATOM     39   O  SGN B   2     -25.576  55.639  15.6610  0.00  0.00     0.000 OA
ENDBRANCH 24 34
BRANCH 20 40
ATOM     40  O4  IDS B   3     -24.493  50.624  12.0590  0.00  0.00     0.000 O
BRANCH 40 44
ATOM     41  C1  IDS B   3     -21.015  50.167  11.9930  0.00  0.00     0.000 C
ATOM     42  C2  IDS B   3     -21.910  49.202  12.7680  0.00  0.00     0.000 C
ATOM     43  C3  IDS B   3     -22.974  49.857  13.6700  0.00  0.00     0.000 C
ATOM     44  C4  IDS B   3     -23.577  51.075  13.0000  0.00  0.00     0.000 C
ATOM     45  C5  IDS B   3     -22.510  51.949  12.3220  0.00  0.00     0.000 C
ATOM     46  O5  IDS B   3     -21.790  51.204  11.4090  0.00  0.00     0.000 O
ATOM     47   O  IDS B   3     -22.372  50.269  14.8800  0.00  0.00     0.000 O
ATOM     49  HD  IDS B   3     -23.020  50.012  14.3660  0.00  0.00     0.000 HD
BRANCH 42 49
ATOM     49   O  IDS B   3     -22.589  48.392  11.8510  0.00  0.00     0.000 O
ATOM     50   O  IDS B   3     -20.902  46.753  11.9730  0.00  0.00     0.000 OA
ATOM     51   O  IDS B   3     -23.164  46.069  11.8330  0.00  0.00     0.000 OA
ATOM     52   O  IDS B   3     -22.115  47.102   9.9880  0.00  0.00     0.000 OA
ATOM     53  @S  IDS B   3     -22.170  46.994  11.3880  0.00  0.00     0.000 S
ENDBRANCH 42 49
BRANCH 45 54
ATOM     54 @CA  IDS B   3     -23.034  53.218  11.6520  0.00  0.00     0.000 C
ATOM     55   O  IDS B   3     -23.013  54.281  12.2110  0.00  0.00     0.000 OA
ATOM     56   O  IDS B   3     -23.459  53.200  10.5440  0.00  0.00     0.000 OA
ENDBRANCH 45 54
BRANCH 41 57
ATOM     57  O4  SGN B   4     -20.034  50.672  12.8370  0.00  0.00     0.000 O
BRANCH 57 61
ATOM     58  C1  SGN B   4     -16.317  52.448  12.6690  0.00  0.00     0.000 C
ATOM     59  C2  SGN B   4     -17.483  53.326  12.2470  0.00  0.00     0.000 C
ATOM     60  C3  SGN B   4     -18.795  52.705  12.7190  0.00  0.00     0.000 C
ATOM     61  C4  SGN B   4     -18.941  51.267  12.2080  0.00  0.00     0.000 C
ATOM     62  C5  SGN B   4     -17.683  50.500  12.6040  0.00  0.00     0.000 C
ATOM     63  O5  SGN B   4     -16.516  51.150  12.1360  0.00  0.00     0.000 O
ATOM     64   O  SGN B   4     -19.869  53.473  12.2150  0.00  0.00     0.000 O
ATOM     66  HD  SGN B   4     -20.428  53.059  11.6990  0.00  0.00     0.000 HD
BRANCH 59 68
ATOM     66   N  SGN B   4     -17.067  54.482  11.4790  0.00  0.00     0.000 N
ATOM     68  HD  SGN B   4     -16.845  53.647  11.5480  0.00  0.00     0.000 HD
ATOM     68 @NS  SGN B   4     -16.182  55.664  12.1910  0.00  0.00     0.000 S
ATOM     69   O  SGN B   4     -16.661  55.840  13.5310  0.00  0.00     0.000 OA
ATOM     70   O  SGN B   4     -14.822  55.207  12.1800  0.00  0.00     0.000 OA
ATOM     71   O  SGN B   4     -16.402  56.816  11.3700  0.00  0.00     0.000 OA
ENDBRANCH 59 68
BRANCH 62 72
ATOM     72   C  SGN B   4     -17.651  49.087  12.0420  0.00  0.00     0.000 C
ATOM     73   O  SGN B   4     -18.350  49.148  10.8350  0.00  0.00     0.000 O
ATOM     74  @S  SGN B   4     -18.111  48.304   9.5710  0.00  0.00     0.000 S
ATOM     75   O  SGN B   4     -18.252  46.944   9.9380  0.00  0.00     0.000 OA
ATOM     76   O  SGN B   4     -19.135  48.731   8.6650  0.00  0.00     0.000 OA
ATOM     77   O  SGN B   4     -16.780  48.595   9.1560  0.00  0.00     0.000 OA
ENDBRANCH 62 72
BRANCH 58 78
ATOM     78  O4  IDS B   5     -16.199  52.438  14.0770  0.00  0.00     0.000 O
BRANCH 78 82
ATOM     79  C1  IDS B   5     -15.308  52.307  17.4210  0.00  0.00     0.000 C
ATOM     80  C2  IDS B   5     -15.673  53.626  16.8120  0.00  0.00     0.000 C
ATOM     81  C3  IDS B   5     -14.943  53.924  15.5050  0.00  0.00     0.000 C
ATOM     82  C4  IDS B   5     -14.910  52.733  14.5690  0.00  0.00     0.000 C
ATOM     83  C5  IDS B   5     -14.413  51.560  15.3510  0.00  0.00     0.000 C
ATOM     84  O5  IDS B   5     -15.295  51.299  16.4260  0.00  0.00     0.000 O
ATOM     85   O  IDS B   5     -13.613  54.256  15.8210  0.00  0.00     0.000 O
ATOM     87  HD  IDS B   5     -13.902  53.656  15.2680  0.00  0.00     0.000 HD
BRANCH 80 87
ATOM     87   O  IDS B   5     -17.016  53.610  16.5260  0.00  0.00     0.000 O
ATOM     88  @S  IDS B   5     -18.104  54.478  17.1640  0.00  0.00     0.000 S
ATOM     89   O  IDS B   5     -17.643  55.811  17.0180  0.00  0.00     0.000 OA
ATOM     90   O  IDS B   5     -19.291  54.187  16.4400  0.00  0.00     0.000 OA
ATOM     91   O  IDS B   5     -18.191  54.064  18.5210  0.00  0.00     0.000 OA
ENDBRANCH 80 87
BRANCH 83 92
ATOM     92 @CA  IDS B   5     -14.144  50.324  14.5000  0.00  0.00     0.000 C
ATOM     93   O  IDS B   5     -14.596  49.222  14.8200  0.00  0.00     0.000 OA
ATOM     94   O  IDS B   5     -13.462  50.405  13.4710  0.00  0.00     0.000 OA
ENDBRANCH 83 92
BRANCH 79 95
ATOM     95  O4  SGN B   6     -14.085  52.419  18.0710  0.00  0.00     0.000 O
BRANCH 95 99
ATOM     96  C1  SGN B   6     -13.165  50.627  21.6980  0.00  0.00     0.000 C
ATOM     97  C2  SGN B   6     -12.169  50.394  20.5680  0.00  0.00     0.000 C
ATOM     98  C3  SGN B   6     -12.374  51.530  19.5650  0.00  0.00     0.000 C
ATOM     99  C4  SGN B   6     -13.812  51.379  18.9930  0.00  0.00     0.000 C
ATOM    100  C5  SGN B   6     -14.786  51.507  20.1990  0.00  0.00     0.000 C
ATOM    101  O5  SGN B   6     -14.490  50.549  21.2100  0.00  0.00     0.000 O
BRANCH 97 104
ATOM    102   N  SGN B   6     -10.854  50.319  21.2120  0.00  0.00     0.000 N
ATOM    104  HD  SGN B   6     -10.272  50.008  20.6500  0.00  0.00     0.000 HD
ATOM    104 @NS  SGN B   6     -10.182  48.816  21.4140  0.00  0.00     0.000 S
ATOM    105   O  SGN B   6     -11.091  47.848  20.8400  0.00  0.00     0.000 OA
ATOM    106   O  SGN B   6      -8.906  48.835  20.7370  0.00  0.00     0.000 OA
ATOM    107   O  SGN B   6     -10.047  48.628  22.8420  0.00  0.00     0.000 OA
ENDBRANCH 97 104
BRANCH 100 108
ATOM    108   C  SGN B   6     -16.268  51.341  19.8840  0.00  0.00     0.000 C
ATOM    109   O  SGN B   6     -16.473  50.106  19.2430  0.00  0.00     0.000 O
ATOM    110  @S  SGN B   6     -17.855  49.548  18.7440  0.00  0.00     0.000 S
ATOM    111   O  SGN B   6     -18.556  50.674  18.1750  0.00  0.00     0.000 OA
ATOM    112   O  SGN B   6     -17.552  48.531  17.7490  0.00  0.00     0.000 OA
ATOM    113   O  SGN B   6     -18.510  49.017  19.9180  0.00  0.00     0.000 OA
ENDBRANCH 100 108
ENDBRANCH 95 99
ENDBRANCH 79 95
ENDBRANCH 78 82
ENDBRANCH 58 78
ENDBRANCH 57 61
ENDBRANCH 41 57
ENDBRANCH 40 44
ENDBRANCH 20 40
ENDBRANCH 19 23
ENDBRANCH 1 19
TORSDOF 22
ENDMDL
MODEL 47
REMARK VINA RESULT:       2.2      2.594      8.989
ROOT
ATOM      1  C1  IDS B   1     -21.926  48.262  13.7060  0.00  0.00     0.000 C
ATOM      2  C2  IDS B   1     -23.332  48.645  13.3240  0.00  0.00     0.000 C
ATOM      3  C3  IDS B   1     -24.463  48.015  14.1720  0.00  0.00     0.000 C
ATOM      4  C4  IDS B   1     -24.032  47.672  15.6470  0.00  0.00     0.000 C
ATOM      5  C5  IDS B   1     -22.520  47.362  15.7700  0.00  0.00     0.000 C
ATOM      6  O5  IDS B   1     -21.771  48.346  15.1080  0.00  0.00     0.000 O
ATOM      7   O  IDS B   1     -24.908  46.850  13.4850  0.00  0.00     0.000 O
ATOM      9  HD  IDS B   1     -25.091  46.776  14.3280  0.00  0.00     0.000 HD
ATOM      9   O  IDS B   1     -24.312  48.797  16.4490  0.00  0.00     0.000 O
ATOM     11  HD  IDS B   1     -24.495  48.723  17.2920  0.00  0.00     0.000 HD
ENDROOT
BRANCH 2 11
ATOM     11   O  IDS B   1     -23.485  50.019  13.4260  0.00  0.00     0.000 O
ATOM     12  @S  IDS B   1     -23.937  50.933  12.2700  0.00  0.00     0.000 S
ATOM     13   O  IDS B   1     -23.527  50.216  11.0800  0.00  0.00     0.000 OA
ATOM     14   O  IDS B   1     -25.380  51.056  12.3780  0.00  0.00     0.000 OA
ATOM     15   O  IDS B   1     -23.248  52.192  12.4700  0.00  0.00     0.000 OA
ENDBRANCH 2 11
BRANCH 5 16
ATOM     16 @CA  IDS B   1     -21.977  47.165  17.1820  0.00  0.00     0.000 C
ATOM     17   O  IDS B   1     -22.589  46.509  18.0220  0.00  0.00     0.000 OA
ATOM     18   O  IDS B   1     -20.897  47.652  17.5080  0.00  0.00     0.000 OA
ENDBRANCH 5 16
BRANCH 1 19
ATOM     19  O4  SGN B   2     -21.694  46.945  13.2520  0.00  0.00     0.000 O
BRANCH 19 23
ATOM     20  C1  SGN B   2     -17.938  47.427  11.6960  0.00  0.00     0.000 C
ATOM     21  C2  SGN B   2     -19.133  47.717  10.8140  0.00  0.00     0.000 C
ATOM     22  C3  SGN B   2     -20.305  48.053  11.6640  0.00  0.00     0.000 C
ATOM     23  C4  SGN B   2     -20.574  46.794  12.4550  0.00  0.00     0.000 C
ATOM     24  C5  SGN B   2     -19.394  46.634  13.3490  0.00  0.00     0.000 C
ATOM     25  O5  SGN B   2     -18.272  46.372  12.5860  0.00  0.00     0.000 O
ATOM     26   O  SGN B   2     -21.387  48.358  10.8570  0.00  0.00     0.000 O
ATOM     28  HD  SGN B   2     -22.126  48.374  10.4060  0.00  0.00     0.000 HD
BRANCH 21 30
ATOM     28   N  SGN B   2     -17.909  48.043  10.1420  0.00  0.00     0.000 N
ATOM     30  HD  SGN B   2     -17.903  48.896  10.2900  0.00  0.00     0.000 HD
ATOM     30 @NS  SGN B   2     -17.999  48.331   8.5450  0.00  0.00     0.000 S
ATOM     31   O  SGN B   2     -19.366  48.346   8.1480  0.00  0.00     0.000 OA
ATOM     32   O  SGN B   2     -17.407  49.597   8.4040  0.00  0.00     0.000 OA
ATOM     33   O  SGN B   2     -17.295  47.279   7.9140  0.00  0.00     0.000 OA
ENDBRANCH 21 30
BRANCH 24 34
ATOM     34   C  SGN B   2     -19.496  45.541  14.3490  0.00  0.00     0.000 C
ATOM     35   O  SGN B   2     -18.571  45.798  15.3440  0.00  0.00     0.000 O
ATOM     36  @S  SGN B   2     -18.512  45.025  16.6570  0.00  0.00     0.000 S
ATOM     37   O  SGN B   2     -17.586  43.942  16.3920  0.00  0.00     0.000 OA
ATOM     38   O  SGN B   2     -18.047  45.951  17.6630  0.00  0.00     0.000 OA
ATOM     39   O  SGN B   2     -19.879  44.586  16.9030  0.00  0.00     0.000 OA
ENDBRANCH 24 34
BRANCH 20 40
ATOM     40  O4  IDS B   3     -17.555  48.574  12.3910  0.00  0.00     0.000 O
BRANCH 40 44
ATOM     41  C1  IDS B   3     -14.933  50.553  13.6220  0.00  0.00     0.000 C
ATOM     42  C2  IDS B   3     -14.662  49.461  12.5880  0.00  0.00     0.000 C
ATOM     43  C3  IDS B   3     -15.313  48.094  12.8750  0.00  0.00     0.000 C
ATOM     44  C4  IDS B   3     -16.706  48.267  13.4460  0.00  0.00     0.000 C
ATOM     45  C5  IDS B   3     -16.763  49.376  14.5080  0.00  0.00     0.000 C
ATOM     46  O5  IDS B   3     -16.307  50.568  13.9810  0.00  0.00     0.000 O
ATOM     47   O  IDS B   3     -14.531  47.393  13.8200  0.00  0.00     0.000 O
ATOM     49  HD  IDS B   3     -15.092  47.480  13.1650  0.00  0.00     0.000 HD
BRANCH 42 49
ATOM     49   O  IDS B   3     -15.142  49.894  11.3480  0.00  0.00     0.000 O
ATOM     50   O  IDS B   3     -12.956  50.364  10.6080  0.00  0.00     0.000 OA
ATOM     51   O  IDS B   3     -14.507  49.417   9.0900  0.00  0.00     0.000 OA
ATOM     52   O  IDS B   3     -14.791  51.631   9.8580  0.00  0.00     0.000 OA
ATOM     53  @S  IDS B   3     -14.298  50.349  10.1540  0.00  0.00     0.000 S
ENDBRANCH 42 49
BRANCH 45 54
ATOM     54 @CA  IDS B   3     -18.128  49.590  15.1580  0.00  0.00     0.000 C
ATOM     55   O  IDS B   3     -18.413  49.081  16.2090  0.00  0.00     0.000 OA
ATOM     56   O  IDS B   3     -18.948  50.286  14.6570  0.00  0.00     0.000 OA
ENDBRANCH 45 54
BRANCH 41 57
ATOM     57  O4  SGN B   4     -14.115  50.360  14.7280  0.00  0.00     0.000 O
BRANCH 57 61
ATOM     58  C1  SGN B   4     -15.167  53.936  16.4890  0.00  0.00     0.000 C
ATOM     59  C2  SGN B   4     -13.987  53.997  15.5340  0.00  0.00     0.000 C
ATOM     60  C3  SGN B   4     -13.952  52.737  14.6730  0.00  0.00     0.000 C
ATOM     61  C4  SGN B   4     -13.926  51.475  15.5430  0.00  0.00     0.000 C
ATOM     62  C5  SGN B   4     -15.093  51.558  16.5230  0.00  0.00     0.000 C
ATOM     63  O5  SGN B   4     -15.053  52.759  17.2700  0.00  0.00     0.000 O
ATOM     64   O  SGN B   4     -12.783  52.761  13.8800  0.00  0.00     0.000 O
ATOM     66  HD  SGN B   4     -12.228  52.105  13.9940  0.00  0.00     0.000 HD
BRANCH 59 68
ATOM     66   N  SGN B   4     -13.204  55.195  15.7630  0.00  0.00     0.000 N
ATOM     68  HD  SGN B   4     -13.666  54.634  16.2340  0.00  0.00     0.000 HD
ATOM     68 @NS  SGN B   4     -13.806  56.661  15.3420  0.00  0.00     0.000 S
ATOM     69   O  SGN B   4     -14.532  56.514  14.1150  0.00  0.00     0.000 OA
ATOM     70   O  SGN B   4     -14.671  57.060  16.4140  0.00  0.00     0.000 OA
ATOM     71   O  SGN B   4     -12.649  57.493  15.2040  0.00  0.00     0.000 OA
ENDBRANCH 59 68
BRANCH 62 72
ATOM     72   C  SGN B   4     -15.102  50.418  17.5300  0.00  0.00     0.000 C
ATOM     73   O  SGN B   4     -15.423  51.003  18.7560  0.00  0.00     0.000 O
ATOM     74  @S  SGN B   4     -16.194  50.365  19.9250  0.00  0.00     0.000 S
ATOM     75   O  SGN B   4     -15.484  49.205  20.3160  0.00  0.00     0.000 OA
ATOM     76   O  SGN B   4     -16.189  51.374  20.9410  0.00  0.00     0.000 OA
ATOM     77   O  SGN B   4     -17.480  50.038  19.4080  0.00  0.00     0.000 OA
ENDBRANCH 62 72
BRANCH 58 78
ATOM     78  O4  IDS B   5     -16.381  53.986  15.7660  0.00  0.00     0.000 O
BRANCH 78 82
ATOM     79  C1  IDS B   5     -19.426  54.646  14.2530  0.00  0.00     0.000 C
ATOM     80  C2  IDS B   5     -18.261  55.548  13.9800  0.00  0.00     0.000 C
ATOM     81  C3  IDS B   5     -17.547  56.032  15.2390  0.00  0.00     0.000 C
ATOM     82  C4  IDS B   5     -17.321  54.923  16.2460  0.00  0.00     0.000 C
ATOM     83  C5  IDS B   5     -18.629  54.229  16.4530  0.00  0.00     0.000 C
ATOM     84  O5  IDS B   5     -19.072  53.679  15.2260  0.00  0.00     0.000 O
ATOM     85   O  IDS B   5     -18.363  57.003  15.8490  0.00  0.00     0.000 O
ATOM     87  HD  IDS B   5     -18.025  56.286  16.1980  0.00  0.00     0.000 HD
BRANCH 80 87
ATOM     87   O  IDS B   5     -17.339  54.848  13.2410  0.00  0.00     0.000 O
ATOM     88  @S  IDS B   5     -16.990  55.058  11.7660  0.00  0.00     0.000 S
ATOM     89   O  IDS B   5     -16.681  56.437  11.6530  0.00  0.00     0.000 OA
ATOM     90   O  IDS B   5     -15.894  54.191  11.5100  0.00  0.00     0.000 OA
ATOM     91   O  IDS B   5     -18.148  54.684  11.0310  0.00  0.00     0.000 OA
ENDBRANCH 80 87
BRANCH 83 92
ATOM     92 @CA  IDS B   5     -18.609  53.204  17.5810  0.00  0.00     0.000 C
ATOM     93   O  IDS B   5     -19.214  52.135  17.4780  0.00  0.00     0.000 OA
ATOM     94   O  IDS B   5     -17.987  53.431  18.6250  0.00  0.00     0.000 OA
ENDBRANCH 83 92
BRANCH 79 95
ATOM     95  O4  SGN B   6     -20.520  55.407  14.6420  0.00  0.00     0.000 O
BRANCH 95 99
ATOM     96  C1  SGN B   6     -24.642  54.935  14.6610  0.00  0.00     0.000 C
ATOM     97  C2  SGN B   6     -23.848  53.887  15.4310  0.00  0.00     0.000 C
ATOM     98  C3  SGN B   6     -22.497  54.521  15.7640  0.00  0.00     0.000 C
ATOM     99  C4  SGN B   6     -21.775  54.791  14.4130  0.00  0.00     0.000 C
ATOM    100  C5  SGN B   6     -22.679  55.773  13.6140  0.00  0.00     0.000 C
ATOM    101  O5  SGN B   6     -23.993  55.249  13.4440  0.00  0.00     0.000 O
BRANCH 97 104
ATOM    102   N  SGN B   6     -25.221  53.379  15.4980  0.00  0.00     0.000 N
ATOM    104  HD  SGN B   6     -25.530  53.479  16.3000  0.00  0.00     0.000 HD
ATOM    104 @NS  SGN B   6     -25.510  52.071  16.4780  0.00  0.00     0.000 S
ATOM    105   O  SGN B   6     -24.262  51.720  17.1200  0.00  0.00     0.000 OA
ATOM    106   O  SGN B   6     -26.518  52.479  17.4290  0.00  0.00     0.000 OA
ATOM    107   O  SGN B   6     -25.969  51.012  15.6060  0.00  0.00     0.000 OA
ENDBRANCH 97 104
BRANCH 100 108
ATOM    108   C  SGN B   6     -22.193  56.147  12.2190  0.00  0.00     0.000 C
ATOM    109   O  SGN B   6     -22.556  55.137  11.3110  0.00  0.00     0.000 O
ATOM    110  @S  SGN B   6     -22.242  55.128   9.7720  0.00  0.00     0.000 S
ATOM    111   O  SGN B   6     -20.898  55.637   9.6380  0.00  0.00     0.000 OA
ATOM    112   O  SGN B   6     -22.348  53.743   9.3390  0.00  0.00     0.000 OA
ATOM    113   O  SGN B   6     -23.229  55.991   9.1650  0.00  0.00     0.000 OA
ENDBRANCH 100 108
ENDBRANCH 95 99
ENDBRANCH 79 95
ENDBRANCH 78 82
ENDBRANCH 58 78
ENDBRANCH 57 61
ENDBRANCH 41 57
ENDBRANCH 40 44
ENDBRANCH 20 40
ENDBRANCH 19 23
ENDBRANCH 1 19
TORSDOF 22
ENDMDL
MODEL 48
REMARK VINA RESULT:       2.2      4.381      7.828
ROOT
ATOM      1  C1  IDS B   1     -11.847  59.744  15.4530  0.00  0.00     0.000 C
ATOM      2  C2  IDS B   1     -12.807  60.875  15.7170  0.00  0.00     0.000 C
ATOM      3  C3  IDS B   1     -13.355  60.979  17.1600  0.00  0.00     0.000 C
ATOM      4  C4  IDS B   1     -12.378  60.402  18.2520  0.00  0.00     0.000 C
ATOM      5  C5  IDS B   1     -11.465  59.279  17.7020  0.00  0.00     0.000 C
ATOM      6  O5  IDS B   1     -10.888  59.679  16.4880  0.00  0.00     0.000 O
ATOM      7   O  IDS B   1     -14.607  60.301  17.1860  0.00  0.00     0.000 O
ATOM      9  HD  IDS B   1     -14.271  60.318  17.9840  0.00  0.00     0.000 HD
ATOM      9   O  IDS B   1     -11.553  61.458  18.6890  0.00  0.00     0.000 O
ATOM     11  HD  IDS B   1     -11.216  61.476  19.4870  0.00  0.00     0.000 HD
ENDROOT
BRANCH 2 11
ATOM     11   O  IDS B   1     -12.187  62.085  15.4450  0.00  0.00     0.000 O
ATOM     12  @S  IDS B   1     -12.684  63.103  14.4010  0.00  0.00     0.000 S
ATOM     13   O  IDS B   1     -13.407  62.292  13.4430  0.00  0.00     0.000 OA
ATOM     14   O  IDS B   1     -13.547  64.034  15.1060  0.00  0.00     0.000 OA
ATOM     15   O  IDS B   1     -11.494  63.733  13.8660  0.00  0.00     0.000 OA
ENDBRANCH 2 11
BRANCH 5 16
ATOM     16 @CA  IDS B   1     -10.380  58.761  18.6420  0.00  0.00     0.000 C
ATOM     17   O  IDS B   1      -9.639  57.835  18.3220  0.00  0.00     0.000 OA
ATOM     18   O  IDS B   1     -10.215  59.274  19.7470  0.00  0.00     0.000 OA
ENDBRANCH 5 16
BRANCH 1 19
ATOM     19  O4  SGN B   2     -12.593  58.546  15.3810  0.00  0.00     0.000 O
BRANCH 19 23
ATOM     20  C1  SGN B   2     -13.440  55.991  12.2970  0.00  0.00     0.000 C
ATOM     21  C2  SGN B   2     -12.024  56.502  12.4500  0.00  0.00     0.000 C
ATOM     22  C3  SGN B   2     -11.790  56.894  13.8640  0.00  0.00     0.000 C
ATOM     23  C4  SGN B   2     -12.751  58.035  14.1070  0.00  0.00     0.000 C
ATOM     24  C5  SGN B   2     -14.108  57.428  14.0210  0.00  0.00     0.000 C
ATOM     25  O5  SGN B   2     -14.339  57.003  12.7270  0.00  0.00     0.000 O
ATOM     26   O  SGN B   2     -10.482  57.323  14.0130  0.00  0.00     0.000 O
ATOM     28  HD  SGN B   2      -9.745  57.766  14.1130  0.00  0.00     0.000 HD
BRANCH 21 30
ATOM     28   N  SGN B   2     -12.090  55.507  11.4190  0.00  0.00     0.000 N
ATOM     30  HD  SGN B   2     -11.765  54.838  11.8630  0.00  0.00     0.000 HD
ATOM     30 @NS  SGN B   2     -10.832  55.424  10.3940  0.00  0.00     0.000 S
ATOM     31   O  SGN B   2      -9.803  56.301  10.8420  0.00  0.00     0.000 OA
ATOM     32   O  SGN B   2     -10.432  54.079  10.4710  0.00  0.00     0.000 OA
ATOM     33   O  SGN B   2     -11.325  55.820   9.1290  0.00  0.00     0.000 OA
ENDBRANCH 21 30
BRANCH 24 34
ATOM     34   C  SGN B   2     -15.231  58.328  14.3840  0.00  0.00     0.000 C
ATOM     35   O  SGN B   2     -16.210  57.554  14.9810  0.00  0.00     0.000 O
ATOM     36  @S  SGN B   2     -17.429  58.138  15.6860  0.00  0.00     0.000 S
ATOM     37   O  SGN B   2     -18.439  58.209  14.6490  0.00  0.00     0.000 OA
ATOM     38   O  SGN B   2     -17.763  57.229  16.7580  0.00  0.00     0.000 OA
ATOM     39   O  SGN B   2     -16.998  59.438  16.1800  0.00  0.00     0.000 OA
ENDBRANCH 24 34
BRANCH 20 40
ATOM     40  O4  IDS B   3     -13.615  54.815  13.0250  0.00  0.00     0.000 O
BRANCH 40 44
ATOM     41  C1  IDS B   3     -15.147  51.681  12.6500  0.00  0.00     0.000 C
ATOM     42  C2  IDS B   3     -15.121  52.676  11.4910  0.00  0.00     0.000 C
ATOM     43  C3  IDS B   3     -15.518  54.122  11.8450  0.00  0.00     0.000 C
ATOM     44  C4  IDS B   3     -14.962  54.522  13.1970  0.00  0.00     0.000 C
ATOM     45  C5  IDS B   3     -15.130  53.408  14.2420  0.00  0.00     0.000 C
ATOM     46  O5  IDS B   3     -14.534  52.242  13.8020  0.00  0.00     0.000 O
ATOM     47   O  IDS B   3     -16.925  54.222  11.8970  0.00  0.00     0.000 O
ATOM     49  HD  IDS B   3     -16.115  54.510  11.7920  0.00  0.00     0.000 HD
BRANCH 42 49
ATOM     49   O  IDS B   3     -13.823  52.720  10.9710  0.00  0.00     0.000 O
ATOM     50   O  IDS B   3     -14.457  51.385   9.1370  0.00  0.00     0.000 OA
ATOM     51   O  IDS B   3     -12.948  53.175   8.7910  0.00  0.00     0.000 OA
ATOM     52   O  IDS B   3     -12.281  51.276  10.0230  0.00  0.00     0.000 OA
ATOM     53  @S  IDS B   3     -13.351  52.106   9.6500  0.00  0.00     0.000 S
ENDBRANCH 42 49
BRANCH 45 54
ATOM     54 @CA  IDS B   3     -14.625  53.745  15.6440  0.00  0.00     0.000 C
ATOM     55   O  IDS B   3     -13.578  54.308  15.8180  0.00  0.00     0.000 OA
ATOM     56   O  IDS B   3     -15.262  53.481  16.6090  0.00  0.00     0.000 OA
ENDBRANCH 45 54
BRANCH 41 57
ATOM     57  O4  SGN B   4     -16.457  51.294  12.9020  0.00  0.00     0.000 O
BRANCH 57 61
ATOM     58  C1  SGN B   4     -18.696  47.877  13.4580  0.00  0.00     0.000 C
ATOM     59  C2  SGN B   4     -17.808  48.277  14.6250  0.00  0.00     0.000 C
ATOM     60  C3  SGN B   4     -17.352  49.723  14.4560  0.00  0.00     0.000 C
ATOM     61  C4  SGN B   4     -16.657  49.929  13.1050  0.00  0.00     0.000 C
ATOM     62  C5  SGN B   4     -17.593  49.414  12.0140  0.00  0.00     0.000 C
ATOM     63  O5  SGN B   4     -17.973  48.072  12.2550  0.00  0.00     0.000 O
ATOM     64   O  SGN B   4     -16.435  50.034  15.4840  0.00  0.00     0.000 O
ATOM     66  HD  SGN B   4     -15.641  50.271  15.2330  0.00  0.00     0.000 HD
BRANCH 59 68
ATOM     66   N  SGN B   4     -18.331  48.094  15.9630  0.00  0.00     0.000 N
ATOM     68  HD  SGN B   4     -17.558  48.210  15.5900  0.00  0.00     0.000 HD
ATOM     68 @NS  SGN B   4     -18.831  46.611  16.4530  0.00  0.00     0.000 S
ATOM     69   O  SGN B   4     -19.474  45.965  15.3480  0.00  0.00     0.000 OA
ATOM     70   O  SGN B   4     -17.649  45.904  16.8540  0.00  0.00     0.000 OA
ATOM     71   O  SGN B   4     -19.728  46.879  17.5360  0.00  0.00     0.000 OA
ENDBRANCH 59 68
BRANCH 62 72
ATOM     72   C  SGN B   4     -16.963  49.447  10.6300  0.00  0.00     0.000 C
ATOM     73   O  SGN B   4     -16.041  48.398  10.6130  0.00  0.00     0.000 O
ATOM     74  @S  SGN B   4     -15.617  47.545   9.4050  0.00  0.00     0.000 S
ATOM     75   O  SGN B   4     -15.096  48.426   8.4270  0.00  0.00     0.000 OA
ATOM     76   O  SGN B   4     -14.617  46.665   9.9310  0.00  0.00     0.000 OA
ATOM     77   O  SGN B   4     -16.803  46.903   8.9470  0.00  0.00     0.000 OA
ENDBRANCH 62 72
BRANCH 58 78
ATOM     78  O4  IDS B   5     -19.900  48.617  13.4870  0.00  0.00     0.000 O
BRANCH 78 82
ATOM     79  C1  IDS B   5     -23.177  49.720  13.6950  0.00  0.00     0.000 C
ATOM     80  C2  IDS B   5     -22.728  48.587  14.5680  0.00  0.00     0.000 C
ATOM     81  C3  IDS B   5     -22.002  47.477  13.8130  0.00  0.00     0.000 C
ATOM     82  C4  IDS B   5     -20.987  48.010  12.8220  0.00  0.00     0.000 C
ATOM     83  C5  IDS B   5     -21.674  49.041  11.9840  0.00  0.00     0.000 C
ATOM     84  O5  IDS B   5     -22.135  50.093  12.8110  0.00  0.00     0.000 O
ATOM     85   O  IDS B   5     -22.965  46.750  13.0880  0.00  0.00     0.000 O
ATOM     87  HD  IDS B   5     -22.238  47.122  12.7970  0.00  0.00     0.000 HD
BRANCH 80 87
ATOM     87   O  IDS B   5     -21.846  49.083  15.4960  0.00  0.00     0.000 O
ATOM     88  @S  IDS B   5     -22.126  49.369  16.9730  0.00  0.00     0.000 S
ATOM     89   O  IDS B   5     -22.664  48.161  17.4860  0.00  0.00     0.000 OA
ATOM     90   O  IDS B   5     -20.872  49.733  17.5320  0.00  0.00     0.000 OA
ATOM     91   O  IDS B   5     -23.054  50.445  16.9960  0.00  0.00     0.000 OA
ENDBRANCH 80 87
BRANCH 83 92
ATOM     92 @CA  IDS B   5     -20.835  49.540  10.8140  0.00  0.00     0.000 C
ATOM     93   O  IDS B   5     -20.483  48.774   9.9130  0.00  0.00     0.000 OA
ATOM     94   O  IDS B   5     -20.485  50.724  10.7500  0.00  0.00     0.000 OA
ENDBRANCH 83 92
BRANCH 79 95
ATOM     95  O4  SGN B   6     -24.334  49.354  13.0200  0.00  0.00     0.000 O
BRANCH 95 99
ATOM     96  C1  SGN B   6     -27.496  51.626  11.5870  0.00  0.00     0.000 C
ATOM     97  C2  SGN B   6     -26.527  51.095  10.5370  0.00  0.00     0.000 C
ATOM     98  C3  SGN B   6     -25.821  49.892  11.1630  0.00  0.00     0.000 C
ATOM     99  C4  SGN B   6     -24.997  50.424  12.3700  0.00  0.00     0.000 C
ATOM    100  C5  SGN B   6     -26.016  51.059  13.3590  0.00  0.00     0.000 C
ATOM    101  O5  SGN B   6     -26.789  52.075  12.7270  0.00  0.00     0.000 O
BRANCH 97 104
ATOM    102   N  SGN B   6     -27.552  51.769   9.7340  0.00  0.00     0.000 N
ATOM    104  HD  SGN B   6     -27.888  51.211   9.1640  0.00  0.00     0.000 HD
ATOM    104 @NS  SGN B   6     -27.271  51.929   8.1070  0.00  0.00     0.000 S
ATOM    105   O  SGN B   6     -26.004  51.294   7.8160  0.00  0.00     0.000 OA
ATOM    106   O  SGN B   6     -28.372  51.285   7.4290  0.00  0.00     0.000 OA
ATOM    107   O  SGN B   6     -27.218  53.351   7.8490  0.00  0.00     0.000 OA
ENDBRANCH 97 104
BRANCH 100 108
ATOM    108   C  SGN B   6     -25.426  51.698  14.6110  0.00  0.00     0.000 C
ATOM    109   O  SGN B   6     -25.364  53.092  14.4380  0.00  0.00     0.000 O
ATOM    110  @S  SGN B   6     -24.814  54.125  15.4870  0.00  0.00     0.000 S
ATOM    111   O  SGN B   6     -23.645  53.513  16.0710  0.00  0.00     0.000 OA
ATOM    112   O  SGN B   6     -24.488  55.331  14.7440  0.00  0.00     0.000 OA
ATOM    113   O  SGN B   6     -25.881  54.317  16.4430  0.00  0.00     0.000 OA
ENDBRANCH 100 108
ENDBRANCH 95 99
ENDBRANCH 79 95
ENDBRANCH 78 82
ENDBRANCH 58 78
ENDBRANCH 57 61
ENDBRANCH 41 57
ENDBRANCH 40 44
ENDBRANCH 20 40
ENDBRANCH 19 23
ENDBRANCH 1 19
TORSDOF 22
ENDMDL
MODEL 49
REMARK VINA RESULT:       2.3      3.280      9.691
ROOT
ATOM      1  C1  IDS B   1     -27.316  54.010  10.4480  0.00  0.00     0.000 C
ATOM      2  C2  IDS B   1     -27.497  55.051  11.5210  0.00  0.00     0.000 C
ATOM      3  C3  IDS B   1     -26.582  56.295  11.4230  0.00  0.00     0.000 C
ATOM      4  C4  IDS B   1     -26.136  56.639   9.9530  0.00  0.00     0.000 C
ATOM      5  C5  IDS B   1     -26.077  55.390   9.0400  0.00  0.00     0.000 C
ATOM      6  O5  IDS B   1     -27.249  54.633   9.1820  0.00  0.00     0.000 O
ATOM      7   O  IDS B   1     -25.453  56.056  12.2570  0.00  0.00     0.000 O
ATOM      9  HD  IDS B   1     -25.244  56.633  11.6470  0.00  0.00     0.000 HD
ATOM      9   O  IDS B   1     -27.088  57.527   9.4130  0.00  0.00     0.000 O
ATOM     11  HD  IDS B   1     -26.879  58.105   8.8020  0.00  0.00     0.000 HD
ENDROOT
BRANCH 2 11
ATOM     11   O  IDS B   1     -28.801  55.520  11.5000  0.00  0.00     0.000 O
ATOM     12  @S  IDS B   1     -29.755  55.500  12.7100  0.00  0.00     0.000 S
ATOM     13   O  IDS B   1     -29.269  54.398  13.5150  0.00  0.00     0.000 OA
ATOM     14   O  IDS B   1     -29.611  56.782  13.3750  0.00  0.00     0.000 OA
ATOM     15   O  IDS B   1     -31.082  55.294  12.1640  0.00  0.00     0.000 OA
ENDBRANCH 2 11
BRANCH 5 16
ATOM     16 @CA  IDS B   1     -25.801  55.639   7.5600  0.00  0.00     0.000 C
ATOM     17   O  IDS B   1     -25.269  54.788   6.8520  0.00  0.00     0.000 OA
ATOM     18   O  IDS B   1     -26.121  56.704   7.0370  0.00  0.00     0.000 OA
ENDBRANCH 5 16
BRANCH 1 19
ATOM     19  O4  SGN B   2     -26.125  53.301  10.7230  0.00  0.00     0.000 O
BRANCH 19 23
ATOM     20  C1  SGN B   2     -25.453  49.499  12.0820  0.00  0.00     0.000 C
ATOM     21  C2  SGN B   2     -26.590  49.733  11.1130  0.00  0.00     0.000 C
ATOM     22  C3  SGN B   2     -26.319  50.961  10.3200  0.00  0.00     0.000 C
ATOM     23  C4  SGN B   2     -26.306  52.077  11.3390  0.00  0.00     0.000 C
ATOM     24  C5  SGN B   2     -25.114  51.813  12.1930  0.00  0.00     0.000 C
ATOM     25  O5  SGN B   2     -25.311  50.647  12.9070  0.00  0.00     0.000 O
ATOM     26   O  SGN B   2     -27.338  51.154   9.4040  0.00  0.00     0.000 O
ATOM     28  HD  SGN B   2     -28.031  51.413   8.9530  0.00  0.00     0.000 HD
BRANCH 21 30
ATOM     28   N  SGN B   2     -26.591  48.386  11.6040  0.00  0.00     0.000 N
ATOM     30  HD  SGN B   2     -25.957  48.067  11.1090  0.00  0.00     0.000 HD
ATOM     30 @NS  SGN B   2     -27.637  47.351  10.9140  0.00  0.00     0.000 S
ATOM     31   O  SGN B   2     -28.265  47.989   9.8060  0.00  0.00     0.000 OA
ATOM     32   O  SGN B   2     -26.821  46.285  10.5000  0.00  0.00     0.000 OA
ATOM     33   O  SGN B   2     -28.580  47.017  11.9130  0.00  0.00     0.000 OA
ENDBRANCH 21 30
BRANCH 24 34
ATOM     34   C  SGN B   2     -24.794  52.872  13.1820  0.00  0.00     0.000 C
ATOM     35   O  SGN B   2     -25.912  53.052  13.9770  0.00  0.00     0.000 O
ATOM     36  @S  SGN B   2     -25.914  53.899  15.2450  0.00  0.00     0.000 S
ATOM     37   O  SGN B   2     -26.304  55.219  14.7910  0.00  0.00     0.000 OA
ATOM     38   O  SGN B   2     -26.864  53.293  16.1480  0.00  0.00     0.000 OA
ATOM     39   O  SGN B   2     -24.550  53.830  15.7520  0.00  0.00     0.000 OA
ENDBRANCH 24 34
BRANCH 20 40
ATOM     40  O4  IDS B   3     -24.273  49.221  11.3930  0.00  0.00     0.000 O
BRANCH 40 44
ATOM     41  C1  IDS B   3     -21.153  47.672  10.9810  0.00  0.00     0.000 C
ATOM     42  C2  IDS B   3     -22.216  47.047  11.8820  0.00  0.00     0.000 C
ATOM     43  C3  IDS B   3     -22.908  48.012  12.8640  0.00  0.00     0.000 C
ATOM     44  C4  IDS B   3     -23.162  49.357  12.2150  0.00  0.00     0.000 C
ATOM     45  C5  IDS B   3     -21.955  49.840  11.3950  0.00  0.00     0.000 C
ATOM     46  O5  IDS B   3     -21.616  48.901  10.4410  0.00  0.00     0.000 O
ATOM     47   O  IDS B   3     -22.075  48.212  13.9880  0.00  0.00     0.000 O
ATOM     49  HD  IDS B   3     -22.825  48.176  13.5550  0.00  0.00     0.000 HD
BRANCH 42 49
ATOM     49   O  IDS B   3     -23.216  46.495  11.0740  0.00  0.00     0.000 O
ATOM     50   O  IDS B   3     -21.946  44.538  10.7520  0.00  0.00     0.000 OA
ATOM     51   O  IDS B   3     -24.289  44.357  11.0300  0.00  0.00     0.000 OA
ATOM     52   O  IDS B   3     -23.394  45.335   9.0780  0.00  0.00     0.000 OA
ATOM     53  @S  IDS B   3     -23.212  45.097  10.4510  0.00  0.00     0.000 S
ENDBRANCH 42 49
BRANCH 45 54
ATOM     54 @CA  IDS B   3     -22.119  51.208  10.7350  0.00  0.00     0.000 C
ATOM     55   O  IDS B   3     -21.766  52.218  11.2810  0.00  0.00     0.000 OA
ATOM     56   O  IDS B   3     -22.580  51.316   9.6470  0.00  0.00     0.000 OA
ENDBRANCH 45 54
BRANCH 41 57
ATOM     57  O4  SGN B   4     -19.974  47.838  11.6970  0.00  0.00     0.000 O
BRANCH 57 61
ATOM     58  C1  SGN B   4     -16.031  46.664  11.4240  0.00  0.00     0.000 C
ATOM     59  C2  SGN B   4     -16.733  46.921  10.1010  0.00  0.00     0.000 C
ATOM     60  C3  SGN B   4     -18.018  47.707  10.3410  0.00  0.00     0.000 C
ATOM     61  C4  SGN B   4     -18.926  46.988  11.3450  0.00  0.00     0.000 C
ATOM     62  C5  SGN B   4     -18.102  46.698  12.5970  0.00  0.00     0.000 C
ATOM     63  O5  SGN B   4     -16.926  45.976  12.2820  0.00  0.00     0.000 O
ATOM     64   O  SGN B   4     -18.712  47.829   9.1160  0.00  0.00     0.000 O
ATOM     66  HD  SGN B   4     -19.507  47.488   9.0880  0.00  0.00     0.000 HD
BRANCH 59 68
ATOM     66   N  SGN B   4     -15.818  47.661   9.2560  0.00  0.00     0.000 N
ATOM     68  HD  SGN B   4     -16.628  47.357   9.2080  0.00  0.00     0.000 HD
ATOM     68 @NS  SGN B   4     -14.569  46.889   8.5260  0.00  0.00     0.000 S
ATOM     69   O  SGN B   4     -14.055  45.906   9.4340  0.00  0.00     0.000 OA
ATOM     70   O  SGN B   4     -15.111  46.277   7.3480  0.00  0.00     0.000 OA
ATOM     71   O  SGN B   4     -13.626  47.929   8.2440  0.00  0.00     0.000 OA
ENDBRANCH 59 68
BRANCH 62 72
ATOM     72   C  SGN B   4     -18.860  45.871  13.6240  0.00  0.00     0.000 C
ATOM     73   O  SGN B   4     -18.439  46.343  14.8690  0.00  0.00     0.000 O
ATOM     74  @S  SGN B   4     -19.253  46.400  16.1730  0.00  0.00     0.000 S
ATOM     75   O  SGN B   4     -19.667  45.079  16.4710  0.00  0.00     0.000 OA
ATOM     76   O  SGN B   4     -18.331  46.912  17.1420  0.00  0.00     0.000 OA
ATOM     77   O  SGN B   4     -20.368  47.243  15.8990  0.00  0.00     0.000 OA
ENDBRANCH 62 72
BRANCH 58 78
ATOM     78  O4  IDS B   5     -15.583  47.883  11.9820  0.00  0.00     0.000 O
BRANCH 78 82
ATOM     79  C1  IDS B   5     -13.685  50.630  12.9030  0.00  0.00     0.000 C
ATOM     80  C2  IDS B   5     -13.338  49.886  11.6490  0.00  0.00     0.000 C
ATOM     81  C3  IDS B   5     -13.225  48.376  11.8400  0.00  0.00     0.000 C
ATOM     82  C4  IDS B   5     -14.355  47.806  12.6730  0.00  0.00     0.000 C
ATOM     83  C5  IDS B   5     -14.452  48.625  13.9200  0.00  0.00     0.000 C
ATOM     84  O5  IDS B   5     -14.737  49.969  13.5830  0.00  0.00     0.000 O
ATOM     85   O  IDS B   5     -12.021  48.117  12.5200  0.00  0.00     0.000 O
ATOM     87  HD  IDS B   5     -12.822  47.862  12.7270  0.00  0.00     0.000 HD
BRANCH 80 87
ATOM     87   O  IDS B   5     -14.336  50.101  10.7310  0.00  0.00     0.000 O
ATOM     88  @S  IDS B   5     -14.362  51.162   9.6290  0.00  0.00     0.000 S
ATOM     89   O  IDS B   5     -13.148  50.984   8.9180  0.00  0.00     0.000 OA
ATOM     90   O  IDS B   5     -15.530  50.889   8.8690  0.00  0.00     0.000 OA
ATOM     91   O  IDS B   5     -14.439  52.416  10.2930  0.00  0.00     0.000 OA
ENDBRANCH 80 87
BRANCH 83 92
ATOM     92 @CA  IDS B   5     -15.422  48.060  14.9510  0.00  0.00     0.000 C
ATOM     93   O  IDS B   5     -15.339  46.888  15.3260  0.00  0.00     0.000 OA
ATOM     94   O  IDS B   5     -16.318  48.768  15.4270  0.00  0.00     0.000 OA
ENDBRANCH 83 92
BRANCH 79 95
ATOM     95  O4  SGN B   6     -12.550  50.764  13.6920  0.00  0.00     0.000 O
BRANCH 95 99
ATOM     96  C1  SGN B   6     -11.533  52.822  17.1480  0.00  0.00     0.000 C
ATOM     97  C2  SGN B   6     -12.742  51.899  17.2530  0.00  0.00     0.000 C
ATOM     98  C3  SGN B   6     -12.606  50.872  16.1280  0.00  0.00     0.000 C
ATOM     99  C4  SGN B   6     -12.697  51.652  14.7850  0.00  0.00     0.000 C
ATOM    100  C5  SGN B   6     -11.513  52.660  14.7760  0.00  0.00     0.000 C
ATOM    101  O5  SGN B   6     -11.549  53.515  15.9150  0.00  0.00     0.000 O
BRANCH 97 104
ATOM    102   N  SGN B   6     -12.495  52.162  18.6740  0.00  0.00     0.000 N
ATOM    104  HD  SGN B   6     -12.633  51.440  19.1320  0.00  0.00     0.000 HD
ATOM    104 @NS  SGN B   6     -13.782  52.036  19.7130  0.00  0.00     0.000 S
ATOM    105   O  SGN B   6     -14.935  51.633  18.9380  0.00  0.00     0.000 OA
ATOM    106   O  SGN B   6     -13.420  51.051  20.7060  0.00  0.00     0.000 OA
ATOM    107   O  SGN B   6     -13.966  53.352  20.2830  0.00  0.00     0.000 OA
ENDBRANCH 97 104
BRANCH 100 108
ATOM    108   C  SGN B   6     -11.425  53.580  13.5640  0.00  0.00     0.000 C
ATOM    109   O  SGN B   6     -12.669  54.203  13.3600  0.00  0.00     0.000 O
ATOM    110  @S  SGN B   6     -13.010  55.222  12.2130  0.00  0.00     0.000 S
ATOM    111   O  SGN B   6     -12.359  54.718  11.0280  0.00  0.00     0.000 OA
ATOM    112   O  SGN B   6     -14.459  55.225  12.0840  0.00  0.00     0.000 OA
ATOM    113   O  SGN B   6     -12.475  56.493  12.6470  0.00  0.00     0.000 OA
ENDBRANCH 100 108
ENDBRANCH 95 99
ENDBRANCH 79 95
ENDBRANCH 78 82
ENDBRANCH 58 78
ENDBRANCH 57 61
ENDBRANCH 41 57
ENDBRANCH 40 44
ENDBRANCH 20 40
ENDBRANCH 19 23
ENDBRANCH 1 19
TORSDOF 22
ENDMDL
MODEL 50
REMARK VINA RESULT:       2.4      2.229      3.607
ROOT
ATOM      1  C1  IDS B   1     -24.496  56.226  13.6810  0.00  0.00     0.000 C
ATOM      2  C2  IDS B   1     -25.282  56.208  12.3960  0.00  0.00     0.000 C
ATOM      3  C3  IDS B   1     -26.177  54.968  12.1630  0.00  0.00     0.000 C
ATOM      4  C4  IDS B   1     -26.681  54.292  13.4930  0.00  0.00     0.000 C
ATOM      5  C5  IDS B   1     -25.706  54.503  14.6760  0.00  0.00     0.000 C
ATOM      6  O5  IDS B   1     -25.332  55.852  14.7580  0.00  0.00     0.000 O
ATOM      7   O  IDS B   1     -25.428  54.048  11.3750  0.00  0.00     0.000 O
ATOM      9  HD  IDS B   1     -26.033  53.620  11.8220  0.00  0.00     0.000 HD
ATOM      9   O  IDS B   1     -27.914  54.886  13.8350  0.00  0.00     0.000 O
ATOM     11  HD  IDS B   1     -28.519  54.457  14.2820  0.00  0.00     0.000 HD
ENDROOT
BRANCH 2 11
ATOM     11   O  IDS B   1     -26.119  57.311  12.3460  0.00  0.00     0.000 O
ATOM     12  @S  IDS B   1     -26.381  58.151  11.0810  0.00  0.00     0.000 S
ATOM     13   O  IDS B   1     -25.181  57.967  10.2890  0.00  0.00     0.000 OA
ATOM     14   O  IDS B   1     -27.559  57.590  10.4450  0.00  0.00     0.000 OA
ATOM     15   O  IDS B   1     -26.583  59.510  11.5430  0.00  0.00     0.000 OA
ENDBRANCH 2 11
BRANCH 5 16
ATOM     16 @CA  IDS B   1     -26.177  54.016  16.0430  0.00  0.00     0.000 C
ATOM     17   O  IDS B   1     -27.121  53.238  16.1600  0.00  0.00     0.000 OA
ATOM     18   O  IDS B   1     -25.606  54.385  17.0670  0.00  0.00     0.000 OA
ENDBRANCH 5 16
BRANCH 1 19
ATOM     19  O4  SGN B   2     -23.416  55.326  13.5460  0.00  0.00     0.000 O
BRANCH 19 23
ATOM     20  C1  SGN B   2     -19.576  55.356  14.9640  0.00  0.00     0.000 C
ATOM     21  C2  SGN B   2     -20.707  55.658  15.9230  0.00  0.00     0.000 C
ATOM     22  C3  SGN B   2     -21.963  55.048  15.4130  0.00  0.00     0.000 C
ATOM     23  C4  SGN B   2     -22.227  55.756  14.1050  0.00  0.00     0.000 C
ATOM     24  C5  SGN B   2     -21.118  55.338  13.2030  0.00  0.00     0.000 C
ATOM     25  O5  SGN B   2     -19.925  55.845  13.6770  0.00  0.00     0.000 O
ATOM     26   O  SGN B   2     -22.990  55.288  16.3100  0.00  0.00     0.000 O
ATOM     28  HD  SGN B   2     -23.688  55.568  16.7390  0.00  0.00     0.000 HD
BRANCH 21 30
ATOM     28   N  SGN B   2     -19.429  55.751  16.5660  0.00  0.00     0.000 N
ATOM     30  HD  SGN B   2     -19.336  54.920  16.7920  0.00  0.00     0.000 HD
ATOM     30 @NS  SGN B   2     -19.424  56.168  18.1360  0.00  0.00     0.000 S
ATOM     31   O  SGN B   2     -20.765  56.214  18.6140  0.00  0.00     0.000 OA
ATOM     32   O  SGN B   2     -18.693  55.137  18.7490  0.00  0.00     0.000 OA
ATOM     33   O  SGN B   2     -18.814  57.443  18.2050  0.00  0.00     0.000 OA
ENDBRANCH 21 30
BRANCH 24 34
ATOM     34   C  SGN B   2     -21.243  55.783  11.7920  0.00  0.00     0.000 C
ATOM     35   O  SGN B   2     -21.752  54.723  11.0630  0.00  0.00     0.000 O
ATOM     36  @S  SGN B   2     -22.225  54.847   9.6190  0.00  0.00     0.000 S
ATOM     37   O  SGN B   2     -21.051  54.530   8.8310  0.00  0.00     0.000 OA
ATOM     38   O  SGN B   2     -23.306  53.903   9.4540  0.00  0.00     0.000 OA
ATOM     39   O  SGN B   2     -22.673  56.226   9.4810  0.00  0.00     0.000 OA
ENDBRANCH 24 34
BRANCH 20 40
ATOM     40  O4  IDS B   3     -19.317  53.986  14.9320  0.00  0.00     0.000 O
BRANCH 40 44
ATOM     41  C1  IDS B   3     -16.849  51.502  14.7120  0.00  0.00     0.000 C
ATOM     42  C2  IDS B   3     -16.464  52.957  14.9730  0.00  0.00     0.000 C
ATOM     43  C3  IDS B   3     -17.141  53.999  14.0620  0.00  0.00     0.000 C
ATOM     44  C4  IDS B   3     -18.589  53.635  13.8030  0.00  0.00     0.000 C
ATOM     45  C5  IDS B   3     -18.764  52.137  13.5080  0.00  0.00     0.000 C
ATOM     46  O5  IDS B   3     -18.254  51.381  14.5450  0.00  0.00     0.000 O
ATOM     47   O  IDS B   3     -16.466  54.045  12.8220  0.00  0.00     0.000 O
ATOM     49  HD  IDS B   3     -16.952  54.352  13.4700  0.00  0.00     0.000 HD
BRANCH 42 49
ATOM     49   O  IDS B   3     -16.806  53.278  16.2910  0.00  0.00     0.000 O
ATOM     50   O  IDS B   3     -14.741  52.465  17.0790  0.00  0.00     0.000 OA
ATOM     51   O  IDS B   3     -15.653  54.423  18.0480  0.00  0.00     0.000 OA
ATOM     52   O  IDS B   3     -16.683  52.328  18.3990  0.00  0.00     0.000 OA
ATOM     53  @S  IDS B   3     -15.916  53.118  17.5260  0.00  0.00     0.000 S
ENDBRANCH 42 49
BRANCH 45 54
ATOM     54 @CA  IDS B   3     -20.192  51.693  13.2010  0.00  0.00     0.000 C
ATOM     55   O  IDS B   3     -20.821  51.017  13.9700  0.00  0.00     0.000 OA
ATOM     56   O  IDS B   3     -20.739  52.021  12.2010  0.00  0.00     0.000 OA
ENDBRANCH 45 54
BRANCH 41 57
ATOM     57  O4  SGN B   4     -16.158  51.029  13.6040  0.00  0.00     0.000 O
BRANCH 57 61
ATOM     58  C1  SGN B   4     -16.725  47.000  14.2690  0.00  0.00     0.000 C
ATOM     59  C2  SGN B   4     -15.714  47.679  15.1770  0.00  0.00     0.000 C
ATOM     60  C3  SGN B   4     -15.884  49.193  15.1000  0.00  0.00     0.000 C
ATOM     61  C4  SGN B   4     -15.782  49.687  13.6520  0.00  0.00     0.000 C
ATOM     62  C5  SGN B   4     -16.769  48.881  12.8120  0.00  0.00     0.000 C
ATOM     63  O5  SGN B   4     -16.547  47.491  12.9510  0.00  0.00     0.000 O
ATOM     64   O  SGN B   4     -14.859  49.805  15.8560  0.00  0.00     0.000 O
ATOM     66  HD  SGN B   4     -14.328  50.336  15.4260  0.00  0.00     0.000 HD
BRANCH 59 68
ATOM     66   N  SGN B   4     -15.941  47.196  16.5240  0.00  0.00     0.000 N
ATOM     68  HD  SGN B   4     -15.413  47.757  16.1270  0.00  0.00     0.000 HD
ATOM     68 @NS  SGN B   4     -15.430  45.699  16.9560  0.00  0.00     0.000 S
ATOM     69   O  SGN B   4     -15.632  44.816  15.8450  0.00  0.00     0.000 OA
ATOM     70   O  SGN B   4     -14.037  45.828  17.2720  0.00  0.00     0.000 OA
ATOM     71   O  SGN B   4     -16.241  45.360  18.0860  0.00  0.00     0.000 OA
ENDBRANCH 59 68
BRANCH 62 72
ATOM     72   C  SGN B   4     -16.672  49.193  11.3260  0.00  0.00     0.000 C
ATOM     73   O  SGN B   4     -17.990  49.225  10.8640  0.00  0.00     0.000 O
ATOM     74  @S  SGN B   4     -18.560  50.082   9.7200  0.00  0.00     0.000 S
ATOM     75   O  SGN B   4     -17.832  49.762   8.5490  0.00  0.00     0.000 OA
ATOM     76   O  SGN B   4     -19.932  49.682   9.6330  0.00  0.00     0.000 OA
ATOM     77   O  SGN B   4     -18.351  51.436  10.1090  0.00  0.00     0.000 OA
ENDBRANCH 62 72
BRANCH 58 78
ATOM     78  O4  IDS B   5     -18.036  47.218  14.7500  0.00  0.00     0.000 O
BRANCH 78 82
ATOM     79  C1  IDS B   5     -21.126  46.989  16.2980  0.00  0.00     0.000 C
ATOM     80  C2  IDS B   5     -19.939  46.328  16.9300  0.00  0.00     0.000 C
ATOM     81  C3  IDS B   5     -19.138  45.452  15.9700  0.00  0.00     0.000 C
ATOM     82  C4  IDS B   5     -18.907  46.115  14.6280  0.00  0.00     0.000 C
ATOM     83  C5  IDS B   5     -20.232  46.600  14.1310  0.00  0.00     0.000 C
ATOM     84  O5  IDS B   5     -20.764  47.541  15.0450  0.00  0.00     0.000 O
ATOM     85   O  IDS B   5     -19.876  44.275  15.7440  0.00  0.00     0.000 O
ATOM     87  HD  IDS B   5     -19.552  44.829  15.1620  0.00  0.00     0.000 HD
BRANCH 80 87
ATOM     87   O  IDS B   5     -19.090  47.308  17.3800  0.00  0.00     0.000 O
ATOM     88  @S  IDS B   5     -18.911  47.778  18.8260  0.00  0.00     0.000 S
ATOM     89   O  IDS B   5     -18.645  46.598  19.5660  0.00  0.00     0.000 OA
ATOM     90   O  IDS B   5     -17.832  48.702  18.7910  0.00  0.00     0.000 OA
ATOM     91   O  IDS B   5     -20.135  48.401  19.1910  0.00  0.00     0.000 OA
ENDBRANCH 80 87
BRANCH 83 92
ATOM     92 @CA  IDS B   5     -20.195  47.126  12.7010  0.00  0.00     0.000 C
ATOM     93   O  IDS B   5     -19.545  46.547  11.8280  0.00  0.00     0.000 OA
ATOM     94   O  IDS B   5     -20.816  48.150  12.3920  0.00  0.00     0.000 OA
ENDBRANCH 83 92
BRANCH 79 95
ATOM     95  O4  SGN B   6     -22.164  46.072  16.1880  0.00  0.00     0.000 O
BRANCH 95 99
ATOM     96  C1  SGN B   6     -26.259  46.367  15.5940  0.00  0.00     0.000 C
ATOM     97  C2  SGN B   6     -25.405  47.405  14.8760  0.00  0.00     0.000 C
ATOM     98  C3  SGN B   6     -24.000  46.813  14.7640  0.00  0.00     0.000 C
ATOM     99  C4  SGN B   6     -23.458  46.646  16.2120  0.00  0.00     0.000 C
ATOM    100  C5  SGN B   6     -24.427  45.670  16.9390  0.00  0.00     0.000 C
ATOM    101  O5  SGN B   6     -25.769  46.146  16.9020  0.00  0.00     0.000 O
BRANCH 97 104
ATOM    102   N  SGN B   6     -26.330  47.580  13.7520  0.00  0.00     0.000 N
ATOM    104  HD  SGN B   6     -25.987  48.128  13.1760  0.00  0.00     0.000 HD
ATOM    104 @NS  SGN B   6     -26.973  49.091  13.5140  0.00  0.00     0.000 S
ATOM    105   O  SGN B   6     -26.414  49.969  14.5180  0.00  0.00     0.000 OA
ATOM    106   O  SGN B   6     -26.610  49.491  12.1750  0.00  0.00     0.000 OA
ATOM    107   O  SGN B   6     -28.402  48.947  13.6800  0.00  0.00     0.000 OA
ENDBRANCH 97 104
BRANCH 100 108
ATOM    108   C  SGN B   6     -24.121  45.391  18.4060  0.00  0.00     0.000 C
ATOM    109   O  SGN B   6     -22.758  45.074  18.5460  0.00  0.00     0.000 O
ATOM    110  @S  SGN B   6     -22.032  44.715  19.8930  0.00  0.00     0.000 S
ATOM    111   O  SGN B   6     -22.949  43.877  20.6270  0.00  0.00     0.000 OA
ATOM    112   O  SGN B   6     -20.815  44.007  19.5270  0.00  0.00     0.000 OA
ATOM    113   O  SGN B   6     -21.779  45.978  20.5500  0.00  0.00     0.000 OA
ENDBRANCH 100 108
ENDBRANCH 95 99
ENDBRANCH 79 95
ENDBRANCH 78 82
ENDBRANCH 58 78
ENDBRANCH 57 61
ENDBRANCH 41 57
ENDBRANCH 40 44
ENDBRANCH 20 40
ENDBRANCH 19 23
ENDBRANCH 1 19
TORSDOF 22
ENDMDL
MODEL 51
REMARK VINA RESULT:       2.4      2.754      7.734
ROOT
ATOM      1  C1  IDS B   1     -23.472  58.485  10.1320  0.00  0.00     0.000 C
ATOM      2  C2  IDS B   1     -23.136  58.314   8.6740  0.00  0.00     0.000 C
ATOM      3  C3  IDS B   1     -24.332  58.066   7.7240  0.00  0.00     0.000 C
ATOM      4  C4  IDS B   1     -25.684  58.695   8.2310  0.00  0.00     0.000 C
ATOM      5  C5  IDS B   1     -25.751  58.801   9.7750  0.00  0.00     0.000 C
ATOM      6  O5  IDS B   1     -24.568  59.366  10.2710  0.00  0.00     0.000 O
ATOM      7   O  IDS B   1     -24.455  56.657   7.5590  0.00  0.00     0.000 O
ATOM      9  HD  IDS B   1     -25.218  57.035   7.4020  0.00  0.00     0.000 HD
ATOM      9   O  IDS B   1     -25.775  59.999   7.7020  0.00  0.00     0.000 O
ATOM     11  HD  IDS B   1     -26.538  60.377   7.5460  0.00  0.00     0.000 HD
ENDROOT
BRANCH 2 11
ATOM     11   O  IDS B   1     -22.494  59.451   8.2070  0.00  0.00     0.000 O
ATOM     12  @S  IDS B   1     -21.017  59.793   8.4830  0.00  0.00     0.000 S
ATOM     13   O  IDS B   1     -20.732  59.117   9.7320  0.00  0.00     0.000 OA
ATOM     14   O  IDS B   1     -20.251  59.257   7.3720  0.00  0.00     0.000 OA
ATOM     15   O  IDS B   1     -20.955  61.239   8.5640  0.00  0.00     0.000 OA
ENDBRANCH 2 11
BRANCH 5 16
ATOM     16 @CA  IDS B   1     -26.956  59.534  10.3560  0.00  0.00     0.000 C
ATOM     17   O  IDS B   1     -27.231  60.685  10.0260  0.00  0.00     0.000 OA
ATOM     18   O  IDS B   1     -27.694  58.977  11.1660  0.00  0.00     0.000 OA
ENDBRANCH 5 16
BRANCH 1 19
ATOM     19  O4  SGN B   2     -23.779  57.212  10.6620  0.00  0.00     0.000 O
BRANCH 19 23
ATOM     20  C1  SGN B   2     -22.967  55.393  14.2370  0.00  0.00     0.000 C
ATOM     21  C2  SGN B   2     -23.857  56.616  14.2300  0.00  0.00     0.000 C
ATOM     22  C3  SGN B   2     -24.487  56.762  12.8920  0.00  0.00     0.000 C
ATOM     23  C4  SGN B   2     -23.328  56.993  11.9490  0.00  0.00     0.000 C
ATOM     24  C5  SGN B   2     -22.558  55.718  11.9550  0.00  0.00     0.000 C
ATOM     25  O5  SGN B   2     -22.001  55.524  13.2040  0.00  0.00     0.000 O
ATOM     26   O  SGN B   2     -25.333  57.857  12.8960  0.00  0.00     0.000 O
ATOM     28  HD  SGN B   2     -25.720  58.625  12.7980  0.00  0.00     0.000 HD
BRANCH 21 30
ATOM     28   N  SGN B   2     -23.519  56.232  15.5700  0.00  0.00     0.000 N
ATOM     30  HD  SGN B   2     -24.036  55.540  15.6410  0.00  0.00     0.000 HD
ATOM     30 @NS  SGN B   2     -24.338  56.955  16.7730  0.00  0.00     0.000 S
ATOM     31   O  SGN B   2     -25.378  57.753  16.2170  0.00  0.00     0.000 OA
ATOM     32   O  SGN B   2     -24.854  55.879  17.5140  0.00  0.00     0.000 OA
ATOM     33   O  SGN B   2     -23.398  57.751  17.4680  0.00  0.00     0.000 OA
ENDBRANCH 21 30
BRANCH 24 34
ATOM     34   C  SGN B   2     -21.447  55.641  10.9740  0.00  0.00     0.000 C
ATOM     35   O  SGN B   2     -21.952  55.079   9.8150  0.00  0.00     0.000 O
ATOM     36  @S  SGN B   2     -21.181  55.026   8.5020  0.00  0.00     0.000 S
ATOM     37   O  SGN B   2     -20.488  53.754   8.5460  0.00  0.00     0.000 OA
ATOM     38   O  SGN B   2     -22.158  55.116   7.4420  0.00  0.00     0.000 OA
ATOM     39   O  SGN B   2     -20.294  56.181   8.5330  0.00  0.00     0.000 OA
ENDBRANCH 24 34
BRANCH 20 40
ATOM     40  O4  IDS B   3     -23.728  54.235  14.0760  0.00  0.00     0.000 O
BRANCH 40 44
ATOM     41  C1  IDS B   3     -24.500  50.835  14.4660  0.00  0.00     0.000 C
ATOM     42  C2  IDS B   3     -25.602  51.891  14.5140  0.00  0.00     0.000 C
ATOM     43  C3  IDS B   3     -25.310  53.120  15.3970  0.00  0.00     0.000 C
ATOM     44  C4  IDS B   3     -23.860  53.545  15.2730  0.00  0.00     0.000 C
ATOM     45  C5  IDS B   3     -22.902  52.343  15.2980  0.00  0.00     0.000 C
ATOM     46  O5  IDS B   3     -23.230  51.448  14.2980  0.00  0.00     0.000 O
ATOM     47   O  IDS B   3     -25.563  52.796  16.7490  0.00  0.00     0.000 O
ATOM     49  HD  IDS B   3     -25.483  53.318  16.0620  0.00  0.00     0.000 HD
BRANCH 42 49
ATOM     49   O  IDS B   3     -25.826  52.361  13.2160  0.00  0.00     0.000 O
ATOM     50   O  IDS B   3     -27.461  50.708  12.8450  0.00  0.00     0.000 OA
ATOM     51   O  IDS B   3     -27.809  52.885  11.9850  0.00  0.00     0.000 OA
ATOM     52   O  IDS B   3     -26.119  51.505  11.0850  0.00  0.00     0.000 OA
ATOM     53  @S  IDS B   3     -26.869  51.836  12.2260  0.00  0.00     0.000 S
ENDBRANCH 42 49
BRANCH 45 54
ATOM     54 @CA  IDS B   3     -21.417  52.689  15.2120  0.00  0.00     0.000 C
ATOM     55   O  IDS B   3     -20.856  53.282  16.0940  0.00  0.00     0.000 OA
ATOM     56   O  IDS B   3     -20.761  52.363  14.2790  0.00  0.00     0.000 OA
ENDBRANCH 45 54
BRANCH 41 57
ATOM     57  O4  SGN B   4     -24.548  50.059  15.6170  0.00  0.00     0.000 O
BRANCH 57 61
ATOM     58  C1  SGN B   4     -22.605  46.827  13.9520  0.00  0.00     0.000 C
ATOM     59  C2  SGN B   4     -24.102  46.891  13.7040  0.00  0.00     0.000 C
ATOM     60  C3  SGN B   4     -24.619  48.292  14.0190  0.00  0.00     0.000 C
ATOM     61  C4  SGN B   4     -24.253  48.707  15.4490  0.00  0.00     0.000 C
ATOM     62  C5  SGN B   4     -22.748  48.518  15.6190  0.00  0.00     0.000 C
ATOM     63  O5  SGN B   4     -22.355  47.198  15.2970  0.00  0.00     0.000 O
ATOM     64   O  SGN B   4     -26.027  48.295  13.8970  0.00  0.00     0.000 O
ATOM     66  HD  SGN B   4     -26.474  48.503  14.6090  0.00  0.00     0.000 HD
BRANCH 59 68
ATOM     66   N  SGN B   4     -24.603  45.590  13.3110  0.00  0.00     0.000 N
ATOM     68  HD  SGN B   4     -23.987  45.906  13.8310  0.00  0.00     0.000 HD
ATOM     68 @NS  SGN B   4     -24.246  44.987  11.8280  0.00  0.00     0.000 S
ATOM     69   O  SGN B   4     -24.267  46.067  10.8860  0.00  0.00     0.000 OA
ATOM     70   O  SGN B   4     -22.936  44.414  11.9350  0.00  0.00     0.000 OA
ATOM     71   O  SGN B   4     -25.272  44.019  11.5830  0.00  0.00     0.000 OA
ENDBRANCH 59 68
BRANCH 62 72
ATOM     72   C  SGN B   4     -22.278  48.778  17.0430  0.00  0.00     0.000 C
ATOM     73   O  SGN B   4     -22.286  47.532  17.6730  0.00  0.00     0.000 O
ATOM     74  @S  SGN B   4     -21.354  47.046  18.7970  0.00  0.00     0.000 S
ATOM     75   O  SGN B   4     -21.500  47.940  19.8850  0.00  0.00     0.000 OA
ATOM     76   O  SGN B   4     -21.834  45.732  19.1060  0.00  0.00     0.000 OA
ATOM     77   O  SGN B   4     -20.037  47.094  18.2580  0.00  0.00     0.000 OA
ENDBRANCH 62 72
BRANCH 58 78
ATOM     78  O4  IDS B   5     -21.922  47.654  13.0310  0.00  0.00     0.000 O
BRANCH 78 82
ATOM     79  C1  IDS B   5     -19.317  49.249  11.3990  0.00  0.00     0.000 C
ATOM     80  C2  IDS B   5     -20.564  48.917  10.6380  0.00  0.00     0.000 C
ATOM     81  C3  IDS B   5     -21.019  47.469  10.8010  0.00  0.00     0.000 C
ATOM     82  C4  IDS B   5     -20.958  46.996  12.2390  0.00  0.00     0.000 C
ATOM     83  C5  IDS B   5     -19.597  47.325  12.7650  0.00  0.00     0.000 C
ATOM     84  O5  IDS B   5     -19.396  48.725  12.7120  0.00  0.00     0.000 O
ATOM     85   O  IDS B   5     -20.150  46.658  10.0480  0.00  0.00     0.000 O
ATOM     87  HD  IDS B   5     -20.362  46.589  10.8850  0.00  0.00     0.000 HD
BRANCH 80 87
ATOM     87   O  IDS B   5     -21.580  49.711  11.1100  0.00  0.00     0.000 O
ATOM     88  @S  IDS B   5     -21.945  51.119  10.6350  0.00  0.00     0.000 S
ATOM     89   O  IDS B   5     -22.099  51.005   9.2290  0.00  0.00     0.000 OA
ATOM     90   O  IDS B   5     -23.139  51.454  11.3280  0.00  0.00     0.000 OA
ATOM     91   O  IDS B   5     -20.858  51.955  11.0100  0.00  0.00     0.000 OA
ENDBRANCH 80 87
BRANCH 83 92
ATOM     92 @CA  IDS B   5     -19.315  46.743  14.1450  0.00  0.00     0.000 C
ATOM     93   O  IDS B   5     -19.076  47.477  15.1060  0.00  0.00     0.000 OA
ATOM     94   O  IDS B   5     -19.316  45.519  14.3240  0.00  0.00     0.000 OA
ENDBRANCH 83 92
BRANCH 79 95
ATOM     95  O4  SGN B   6     -18.211  48.771  10.7080  0.00  0.00     0.000 O
BRANCH 95 99
ATOM     96  C1  SGN B   6     -14.242  49.962  10.9080  0.00  0.00     0.000 C
ATOM     97  C2  SGN B   6     -14.547  48.568  11.4420  0.00  0.00     0.000 C
ATOM     98  C3  SGN B   6     -15.859  48.129  10.7920  0.00  0.00     0.000 C
ATOM     99  C4  SGN B   6     -16.965  49.101  11.2940  0.00  0.00     0.000 C
ATOM    100  C5  SGN B   6     -16.550  50.525  10.8250  0.00  0.00     0.000 C
ATOM    101  O5  SGN B   6     -15.252  50.872  11.3000  0.00  0.00     0.000 O
BRANCH 97 104
ATOM    102   N  SGN B   6     -13.190  48.781  11.9540  0.00  0.00     0.000 N
ATOM    104  HD  SGN B   6     -12.615  48.432  11.4080  0.00  0.00     0.000 HD
ATOM    104 @NS  SGN B   6     -12.308  47.440  12.3750  0.00  0.00     0.000 S
ATOM    105   O  SGN B   6     -13.118  46.275  12.0920  0.00  0.00     0.000 OA
ATOM    106   O  SGN B   6     -11.101  47.470  11.5830  0.00  0.00     0.000 OA
ATOM    107   O  SGN B   6     -12.043  47.564  13.7910  0.00  0.00     0.000 OA
ENDBRANCH 97 104
BRANCH 100 108
ATOM    108   C  SGN B   6     -17.469  51.665  11.2500  0.00  0.00     0.000 C
ATOM    109   O  SGN B   6     -16.758  52.877  11.2130  0.00  0.00     0.000 O
ATOM    110  @S  SGN B   6     -17.333  54.292  11.5820  0.00  0.00     0.000 S
ATOM    111   O  SGN B   6     -18.169  54.090  12.7420  0.00  0.00     0.000 OA
ATOM    112   O  SGN B   6     -16.187  55.138  11.8740  0.00  0.00     0.000 OA
ATOM    113   O  SGN B   6     -18.080  54.726  10.4240  0.00  0.00     0.000 OA
ENDBRANCH 100 108
ENDBRANCH 95 99
ENDBRANCH 79 95
ENDBRANCH 78 82
ENDBRANCH 58 78
ENDBRANCH 57 61
ENDBRANCH 41 57
ENDBRANCH 40 44
ENDBRANCH 20 40
ENDBRANCH 19 23
ENDBRANCH 1 19
TORSDOF 22
ENDMDL
MODEL 52
REMARK VINA RESULT:       2.5      2.680      8.496
ROOT
ATOM      1  C1  IDS B   1     -26.140  53.580  11.8430  0.00  0.00     0.000 C
ATOM      2  C2  IDS B   1     -25.404  54.895  11.8480  0.00  0.00     0.000 C
ATOM      3  C3  IDS B   1     -24.629  55.246  10.5560  0.00  0.00     0.000 C
ATOM      4  C4  IDS B   1     -25.243  54.605   9.2560  0.00  0.00     0.000 C
ATOM      5  C5  IDS B   1     -25.990  53.278   9.5390  0.00  0.00     0.000 C
ATOM      6  O5  IDS B   1     -26.854  53.436  10.6320  0.00  0.00     0.000 O
ATOM      7   O  IDS B   1     -23.281  54.826  10.7450  0.00  0.00     0.000 O
ATOM      9  HD  IDS B   1     -23.458  54.859   9.8980  0.00  0.00     0.000 HD
ATOM      9   O  IDS B   1     -26.173  55.522   8.7240  0.00  0.00     0.000 O
ATOM     11  HD  IDS B   1     -26.350  55.554   7.8770  0.00  0.00     0.000 HD
ENDROOT
BRANCH 2 11
ATOM     11   O  IDS B   1     -26.301  55.930  12.0610  0.00  0.00     0.000 O
ATOM     12  @S  IDS B   1     -25.961  57.241  12.7950  0.00  0.00     0.000 S
ATOM     13   O  IDS B   1     -24.875  56.871  13.6810  0.00  0.00     0.000 OA
ATOM     14   O  IDS B   1     -25.550  58.193  11.7780  0.00  0.00     0.000 OA
ATOM     15   O  IDS B   1     -27.175  57.638  13.4800  0.00  0.00     0.000 OA
ENDBRANCH 2 11
BRANCH 5 16
ATOM     16 @CA  IDS B   1     -26.747  52.659   8.3690  0.00  0.00     0.000 C
ATOM     17   O  IDS B   1     -27.508  51.707   8.5250  0.00  0.00     0.000 OA
ATOM     18   O  IDS B   1     -26.620  53.112   7.2340  0.00  0.00     0.000 OA
ENDBRANCH 5 16
BRANCH 1 19
ATOM     19  O4  SGN B   2     -25.189  52.547  11.9930  0.00  0.00     0.000 O
BRANCH 19 23
ATOM     20  C1  SGN B   2     -25.102  49.121  14.2320  0.00  0.00     0.000 C
ATOM     21  C2  SGN B   2     -26.136  49.246  13.1360  0.00  0.00     0.000 C
ATOM     22  C3  SGN B   2     -25.659  50.214  12.1140  0.00  0.00     0.000 C
ATOM     23  C4  SGN B   2     -25.565  51.530  12.8510  0.00  0.00     0.000 C
ATOM     24  C5  SGN B   2     -24.473  51.344  13.8470  0.00  0.00     0.000 C
ATOM     25  O5  SGN B   2     -24.864  50.408  14.7850  0.00  0.00     0.000 O
ATOM     26   O  SGN B   2     -26.586  50.299  11.0900  0.00  0.00     0.000 O
ATOM     28  HD  SGN B   2     -27.209  50.520  10.5310  0.00  0.00     0.000 HD
BRANCH 21 30
ATOM     28   N  SGN B   2     -26.310  47.902  12.6690  0.00  0.00     0.000 N
ATOM     30  HD  SGN B   2     -26.849  48.061  12.0100  0.00  0.00     0.000 HD
ATOM     30 @NS  SGN B   2     -27.469  47.017  13.3870  0.00  0.00     0.000 S
ATOM     31   O  SGN B   2     -28.210  47.847  14.2760  0.00  0.00     0.000 OA
ATOM     32   O  SGN B   2     -28.260  46.575  12.3140  0.00  0.00     0.000 OA
ATOM     33   O  SGN B   2     -26.801  45.986  14.0890  0.00  0.00     0.000 OA
ENDBRANCH 21 30
BRANCH 24 34
ATOM     34   C  SGN B   2     -24.080  52.563  14.5960  0.00  0.00     0.000 C
ATOM     35   O  SGN B   2     -22.701  52.561  14.7030  0.00  0.00     0.000 O
ATOM     36  @S  SGN B   2     -21.896  53.749  15.2170  0.00  0.00     0.000 S
ATOM     37   O  SGN B   2     -21.779  53.512  16.6420  0.00  0.00     0.000 OA
ATOM     38   O  SGN B   2     -20.631  53.725  14.5200  0.00  0.00     0.000 OA
ATOM     39   O  SGN B   2     -22.689  54.923  14.8770  0.00  0.00     0.000 OA
ENDBRANCH 24 34
BRANCH 20 40
ATOM     40  O4  IDS B   3     -23.927  48.559  13.7340  0.00  0.00     0.000 O
BRANCH 40 44
ATOM     41  C1  IDS B   3     -21.250  46.362  13.1730  0.00  0.00     0.000 C
ATOM     42  C2  IDS B   3     -22.692  45.867  13.0830  0.00  0.00     0.000 C
ATOM     43  C3  IDS B   3     -23.617  46.292  14.2400  0.00  0.00     0.000 C
ATOM     44  C4  IDS B   3     -23.332  47.719  14.6650  0.00  0.00     0.000 C
ATOM     45  C5  IDS B   3     -21.825  48.007  14.7490  0.00  0.00     0.000 C
ATOM     46  O5  IDS B   3     -21.217  47.734  13.5400  0.00  0.00     0.000 O
ATOM     47   O  IDS B   3     -23.397  45.446  15.3490  0.00  0.00     0.000 O
ATOM     49  HD  IDS B   3     -23.848  45.984  14.8420  0.00  0.00     0.000 HD
BRANCH 42 49
ATOM     49   O  IDS B   3     -23.258  46.358  11.9010  0.00  0.00     0.000 O
ATOM     50   O  IDS B   3     -22.826  44.327  10.7900  0.00  0.00     0.000 OA
ATOM     51   O  IDS B   3     -24.855  45.466  10.3590  0.00  0.00     0.000 OA
ATOM     52   O  IDS B   3     -22.801  46.374   9.6320  0.00  0.00     0.000 OA
ATOM     53  @S  IDS B   3     -23.450  45.583  10.5950  0.00  0.00     0.000 S
ENDBRANCH 42 49
BRANCH 45 54
ATOM     54 @CA  IDS B   3     -21.453  49.416  15.2050  0.00  0.00     0.000 C
ATOM     55   O  IDS B   3     -21.825  49.856  16.2600  0.00  0.00     0.000 OA
ATOM     56   O  IDS B   3     -20.764  50.117  14.5420  0.00  0.00     0.000 OA
ENDBRANCH 45 54
BRANCH 41 57
ATOM     57  O4  SGN B   4     -20.542  45.573  14.0710  0.00  0.00     0.000 O
BRANCH 57 61
ATOM     58  C1  SGN B   4     -16.785  46.564  12.6920  0.00  0.00     0.000 C
ATOM     59  C2  SGN B   4     -17.537  45.533  11.8670  0.00  0.00     0.000 C
ATOM     60  C3  SGN B   4     -19.016  45.549  12.2400  0.00  0.00     0.000 C
ATOM     61  C4  SGN B   4     -19.208  45.334  13.7460  0.00  0.00     0.000 C
ATOM     62  C5  SGN B   4     -18.344  46.356  14.4790  0.00  0.00     0.000 C
ATOM     63  O5  SGN B   4     -16.993  46.279  14.0650  0.00  0.00     0.000 O
ATOM     64   O  SGN B   4     -19.671  44.505  11.5500  0.00  0.00     0.000 O
ATOM     66  HD  SGN B   4     -20.059  43.905  12.0390  0.00  0.00     0.000 HD
BRANCH 59 68
ATOM     66   N  SGN B   4     -16.596  44.805  11.0400  0.00  0.00     0.000 N
ATOM     68  HD  SGN B   4     -16.600  45.188  11.8160  0.00  0.00     0.000 HD
ATOM     68 @NS  SGN B   4     -15.924  45.527   9.7300  0.00  0.00     0.000 S
ATOM     69   O  SGN B   4     -16.919  46.352   9.1110  0.00  0.00     0.000 OA
ATOM     70   O  SGN B   4     -14.830  46.312  10.2250  0.00  0.00     0.000 OA
ATOM     71   O  SGN B   4     -15.511  44.439   8.8970  0.00  0.00     0.000 OA
ENDBRANCH 59 68
BRANCH 62 72
ATOM     72   C  SGN B   4     -18.350  46.162  15.9880  0.00  0.00     0.000 C
ATOM     73   O  SGN B   4     -17.148  46.710  16.4410  0.00  0.00     0.000 O
ATOM     74  @S  SGN B   4     -16.880  47.388  17.7960  0.00  0.00     0.000 S
ATOM     75   O  SGN B   4     -17.189  46.447  18.8080  0.00  0.00     0.000 OA
ATOM     76   O  SGN B   4     -15.485  47.708  17.7580  0.00  0.00     0.000 OA
ATOM     77   O  SGN B   4     -17.754  48.512  17.8470  0.00  0.00     0.000 OA
ENDBRANCH 62 72
BRANCH 58 78
ATOM     78  O4  IDS B   5     -17.208  47.867  12.3450  0.00  0.00     0.000 O
BRANCH 78 82
ATOM     79  C1  IDS B   5     -17.608  51.267  11.8160  0.00  0.00     0.000 C
ATOM     80  C2  IDS B   5     -17.680  50.331  10.6490  0.00  0.00     0.000 C
ATOM     81  C3  IDS B   5     -16.512  49.350  10.5730  0.00  0.00     0.000 C
ATOM     82  C4  IDS B   5     -16.179  48.732  11.9150  0.00  0.00     0.000 C
ATOM     83  C5  IDS B   5     -16.043  49.847  12.9030  0.00  0.00     0.000 C
ATOM     84  O5  IDS B   5     -17.266  50.553  12.9910  0.00  0.00     0.000 O
ATOM     85   O  IDS B   5     -15.380  50.063  10.1380  0.00  0.00     0.000 O
ATOM     87  HD  IDS B   5     -15.466  49.565  10.8410  0.00  0.00     0.000 HD
BRANCH 80 87
ATOM     87   O  IDS B   5     -18.824  49.582  10.7680  0.00  0.00     0.000 O
ATOM     88  @S  IDS B   5     -19.855  49.294   9.6740  0.00  0.00     0.000 S
ATOM     89   O  IDS B   5     -19.104  48.771   8.5900  0.00  0.00     0.000 OA
ATOM     90   O  IDS B   5     -20.769  48.371  10.2500  0.00  0.00     0.000 OA
ATOM     91   O  IDS B   5     -20.471  50.539   9.3770  0.00  0.00     0.000 OA
ENDBRANCH 80 87
BRANCH 83 92
ATOM     92 @CA  IDS B   5     -15.524  49.401  14.2640  0.00  0.00     0.000 C
ATOM     93   O  IDS B   5     -16.071  49.773  15.3050  0.00  0.00     0.000 OA
ATOM     94   O  IDS B   5     -14.538  48.659  14.3490  0.00  0.00     0.000 OA
ENDBRANCH 83 92
BRANCH 79 95
ATOM     95  O4  SGN B   6     -16.705  52.286  11.5390  0.00  0.00     0.000 O
BRANCH 95 99
ATOM     96  C1  SGN B   6     -15.374  55.714  13.4580  0.00  0.00     0.000 C
ATOM     97  C2  SGN B   6     -15.155  54.404  14.2060  0.00  0.00     0.000 C
ATOM     98  C3  SGN B   6     -15.182  53.293  13.1560  0.00  0.00     0.000 C
ATOM     99  C4  SGN B   6     -16.612  53.278  12.5450  0.00  0.00     0.000 C
ATOM    100  C5  SGN B   6     -16.833  54.674  11.8960  0.00  0.00     0.000 C
ATOM    101  O5  SGN B   6     -16.647  55.723  12.8420  0.00  0.00     0.000 O
BRANCH 97 104
ATOM    102   N  SGN B   6     -13.930  54.786  14.9150  0.00  0.00     0.000 N
ATOM    104  HD  SGN B   6     -13.668  54.130  15.4160  0.00  0.00     0.000 HD
ATOM    104 @NS  SGN B   6     -14.000  54.887  16.5700  0.00  0.00     0.000 S
ATOM    105   O  SGN B   6     -15.338  54.516  16.9760  0.00  0.00     0.000 OA
ATOM    106   O  SGN B   6     -13.002  53.978  17.0840  0.00  0.00     0.000 OA
ATOM    107   O  SGN B   6     -13.714  56.265  16.8990  0.00  0.00     0.000 OA
ENDBRANCH 97 104
BRANCH 100 108
ATOM    108   C  SGN B   6     -18.202  54.913  11.2690  0.00  0.00     0.000 C
ATOM    109   O  SGN B   6     -18.410  56.295  11.1150  0.00  0.00     0.000 O
ATOM    110  @S  SGN B   6     -19.696  56.969  10.5130  0.00  0.00     0.000 S
ATOM    111   O  SGN B   6     -20.816  56.220  11.0300  0.00  0.00     0.000 OA
ATOM    112   O  SGN B   6     -19.695  58.346  10.9820  0.00  0.00     0.000 OA
ATOM    113   O  SGN B   6     -19.562  56.857   9.0780  0.00  0.00     0.000 OA
ENDBRANCH 100 108
ENDBRANCH 95 99
ENDBRANCH 79 95
ENDBRANCH 78 82
ENDBRANCH 58 78
ENDBRANCH 57 61
ENDBRANCH 41 57
ENDBRANCH 40 44
ENDBRANCH 20 40
ENDBRANCH 19 23
ENDBRANCH 1 19
TORSDOF 22
ENDMDL
MODEL 53
REMARK VINA RESULT:       2.7      3.049     11.144
ROOT
ATOM      1  C1  IDS B   1     -17.862  48.195  11.5530  0.00  0.00     0.000 C
ATOM      2  C2  IDS B   1     -17.509  47.365  10.3470  0.00  0.00     0.000 C
ATOM      3  C3  IDS B   1     -17.050  48.147   9.0930  0.00  0.00     0.000 C
ATOM      4  C4  IDS B   1     -16.366  49.526   9.4220  0.00  0.00     0.000 C
ATOM      5  C5  IDS B   1     -16.877  50.145  10.7460  0.00  0.00     0.000 C
ATOM      6  O5  IDS B   1     -16.870  49.180  11.7630  0.00  0.00     0.000 O
ATOM      7   O  IDS B   1     -18.195  48.329   8.2660  0.00  0.00     0.000 O
ATOM      9  HD  IDS B   1     -17.611  48.944   8.0900  0.00  0.00     0.000 HD
ATOM      9   O  IDS B   1     -14.981  49.297   9.5560  0.00  0.00     0.000 O
ATOM     11  HD  IDS B   1     -14.397  49.911   9.3800  0.00  0.00     0.000 HD
ENDROOT
BRANCH 2 11
ATOM     11   O  IDS B   1     -16.478  46.495  10.6650  0.00  0.00     0.000 O
ATOM     12  @S  IDS B   1     -16.579  44.960  10.5900  0.00  0.00     0.000 S
ATOM     13   O  IDS B   1     -17.991  44.695  10.7740  0.00  0.00     0.000 OA
ATOM     14   O  IDS B   1     -16.107  44.575   9.2720  0.00  0.00     0.000 OA
ATOM     15   O  IDS B   1     -15.738  44.456  11.6580  0.00  0.00     0.000 OA
ENDBRANCH 2 11
BRANCH 5 16
ATOM     16 @CA  IDS B   1     -16.167  51.406  11.2280  0.00  0.00     0.000 C
ATOM     17   O  IDS B   1     -16.229  51.774  12.3990  0.00  0.00     0.000 OA
ATOM     18   O  IDS B   1     -15.499  52.082  10.4490  0.00  0.00     0.000 OA
ENDBRANCH 5 16
BRANCH 1 19
ATOM     19  O4  SGN B   2     -19.121  48.791  11.3190  0.00  0.00     0.000 O
BRANCH 19 23
ATOM     20  C1  SGN B   2     -22.366  49.439  13.7300  0.00  0.00     0.000 C
ATOM     21  C2  SGN B   2     -20.985  49.727  14.2770  0.00  0.00     0.000 C
ATOM     22  C3  SGN B   2     -20.054  49.997  13.1510  0.00  0.00     0.000 C
ATOM     23  C4  SGN B   2     -20.012  48.702  12.3720  0.00  0.00     0.000 C
ATOM     24  C5  SGN B   2     -21.379  48.542  11.8050  0.00  0.00     0.000 C
ATOM     25  O5  SGN B   2     -22.282  48.341  12.8310  0.00  0.00     0.000 O
ATOM     26   O  SGN B   2     -18.800  50.301  13.6510  0.00  0.00     0.000 O
ATOM     28  HD  SGN B   2     -17.972  50.313  13.9060  0.00  0.00     0.000 HD
BRANCH 21 30
ATOM     28   N  SGN B   2     -21.959  50.277  15.1740  0.00  0.00     0.000 N
ATOM     30  HD  SGN B   2     -21.802  51.117  15.0370  0.00  0.00     0.000 HD
ATOM     30 @NS  SGN B   2     -21.511  50.458  16.7260  0.00  0.00     0.000 S
ATOM     31   O  SGN B   2     -20.125  50.156  16.8520  0.00  0.00     0.000 OA
ATOM     32   O  SGN B   2     -21.770  51.814  16.9880  0.00  0.00     0.000 OA
ATOM     33   O  SGN B   2     -22.300  49.553  17.4730  0.00  0.00     0.000 OA
ENDBRANCH 21 30
BRANCH 24 34
ATOM     34   C  SGN B   2     -21.547  47.411  10.8590  0.00  0.00     0.000 C
ATOM     35   O  SGN B   2     -22.763  46.812  11.1370  0.00  0.00     0.000 O
ATOM     36  @S  SGN B   2     -23.399  45.749  10.2480  0.00  0.00     0.000 S
ATOM     37   O  SGN B   2     -22.916  44.495  10.7920  0.00  0.00     0.000 OA
ATOM     38   O  SGN B   2     -24.829  45.915  10.3600  0.00  0.00     0.000 OA
ATOM     39   O  SGN B   2     -22.914  46.034   8.9050  0.00  0.00     0.000 OA
ENDBRANCH 24 34
BRANCH 20 40
ATOM     40  O4  IDS B   3     -22.888  50.569  13.1020  0.00  0.00     0.000 O
BRANCH 40 44
ATOM     41  C1  IDS B   3     -25.768  52.542  12.7590  0.00  0.00     0.000 C
ATOM     42  C2  IDS B   3     -25.698  51.450  13.8250  0.00  0.00     0.000 C
ATOM     43  C3  IDS B   3     -25.168  50.085  13.3460  0.00  0.00     0.000 C
ATOM     44  C4  IDS B   3     -24.024  50.260  12.3660  0.00  0.00     0.000 C
ATOM     45  C5  IDS B   3     -24.307  51.370  11.3420  0.00  0.00     0.000 C
ATOM     46  O5  IDS B   3     -24.577  52.561  11.9860  0.00  0.00     0.000 O
ATOM     47   O  IDS B   3     -26.205  49.382  12.6950  0.00  0.00     0.000 O
ATOM     49  HD  IDS B   3     -25.468  49.470  13.1400  0.00  0.00     0.000 HD
BRANCH 42 49
ATOM     49   O  IDS B   3     -24.853  51.883  14.8520  0.00  0.00     0.000 O
ATOM     50   O  IDS B   3     -26.695  52.574  16.1460  0.00  0.00     0.000 OA
ATOM     51   O  IDS B   3     -24.853  51.549  17.2210  0.00  0.00     0.000 OA
ATOM     52   O  IDS B   3     -24.633  53.699  16.2720  0.00  0.00     0.000 OA
ATOM     53  @S  IDS B   3     -25.285  52.456  16.2040  0.00  0.00     0.000 S
ENDBRANCH 42 49
BRANCH 45 54
ATOM     54 @CA  IDS B   3     -23.216  51.587  10.2950  0.00  0.00     0.000 C
ATOM     55   O  IDS B   3     -22.778  52.680  10.0590  0.00  0.00     0.000 OA
ATOM     56   O  IDS B   3     -22.747  50.677   9.6960  0.00  0.00     0.000 OA
ENDBRANCH 45 54
BRANCH 41 57
ATOM     57  O4  SGN B   4     -26.892  52.348  11.9660  0.00  0.00     0.000 O
BRANCH 57 61
ATOM     58  C1  SGN B   4     -27.162  56.261  10.6950  0.00  0.00     0.000 C
ATOM     59  C2  SGN B   4     -27.769  55.970  12.0570  0.00  0.00     0.000 C
ATOM     60  C3  SGN B   4     -27.267  54.623  12.5700  0.00  0.00     0.000 C
ATOM     61  C4  SGN B   4     -27.554  53.506  11.5610  0.00  0.00     0.000 C
ATOM     62  C5  SGN B   4     -26.986  53.937  10.2110  0.00  0.00     0.000 C
ATOM     63  O5  SGN B   4     -27.495  55.198   9.8180  0.00  0.00     0.000 O
ATOM     64   O  SGN B   4     -27.934  54.320  13.7780  0.00  0.00     0.000 O
ATOM     66  HD  SGN B   4     -28.405  53.593  13.7850  0.00  0.00     0.000 HD
BRANCH 59 68
ATOM     66   N  SGN B   4     -28.332  57.275  11.7790  0.00  0.00     0.000 N
ATOM     68  HD  SGN B   4     -27.664  56.797  11.5050  0.00  0.00     0.000 HD
ATOM     68 @NS  SGN B   4     -28.127  58.502  12.8470  0.00  0.00     0.000 S
ATOM     69   O  SGN B   4     -28.212  57.963  14.1730  0.00  0.00     0.000 OA
ATOM     70   O  SGN B   4     -26.825  59.045  12.5870  0.00  0.00     0.000 OA
ATOM     71   O  SGN B   4     -29.192  59.412  12.5510  0.00  0.00     0.000 OA
ENDBRANCH 59 68
BRANCH 62 72
ATOM     72   C  SGN B   4     -27.319  52.963   9.0910  0.00  0.00     0.000 C
ATOM     73   O  SGN B   4     -26.906  51.710   9.5490  0.00  0.00     0.000 O
ATOM     74  @S  SGN B   4     -27.525  50.341   9.2180  0.00  0.00     0.000 S
ATOM     75   O  SGN B   4     -27.477  50.184   7.8110  0.00  0.00     0.000 OA
ATOM     76   O  SGN B   4     -26.685  49.402   9.8980  0.00  0.00     0.000 OA
ATOM     77   O  SGN B   4     -28.868  50.399   9.6880  0.00  0.00     0.000 OA
ENDBRANCH 62 72
BRANCH 58 78
ATOM     78  O4  IDS B   5     -25.765  56.442  10.8120  0.00  0.00     0.000 O
BRANCH 78 82
ATOM     79  C1  IDS B   5     -22.411  56.877  10.0670  0.00  0.00     0.000 C
ATOM     80  C2  IDS B   5     -22.994  57.579  11.2550  0.00  0.00     0.000 C
ATOM     81  C3  IDS B   5     -24.282  58.341  10.9500  0.00  0.00     0.000 C
ATOM     82  C4  IDS B   5     -25.245  57.541  10.0960  0.00  0.00     0.000 C
ATOM     83  C5  IDS B   5     -24.483  57.030   8.9160  0.00  0.00     0.000 C
ATOM     84  O5  IDS B   5     -23.430  56.195   9.3580  0.00  0.00     0.000 O
ATOM     85   O  IDS B   5     -23.935  59.500  10.2310  0.00  0.00     0.000 O
ATOM     87  HD  IDS B   5     -24.508  58.885  10.0200  0.00  0.00     0.000 HD
BRANCH 80 87
ATOM     87   O  IDS B   5     -23.303  56.636  12.2040  0.00  0.00     0.000 O
ATOM     88  @S  IDS B   5     -22.323  55.733  12.9570  0.00  0.00     0.000 S
ATOM     89   O  IDS B   5     -21.364  56.616  13.5170  0.00  0.00     0.000 OA
ATOM     90   O  IDS B   5     -23.109  55.041  13.9170  0.00  0.00     0.000 OA
ATOM     91   O  IDS B   5     -21.772  54.855  11.9860  0.00  0.00     0.000 OA
ENDBRANCH 80 87
BRANCH 83 92
ATOM     92 @CA  IDS B   5     -25.359  56.361   7.8630  0.00  0.00     0.000 C
ATOM     93   O  IDS B   5     -26.329  56.949   7.3780  0.00  0.00     0.000 OA
ATOM     94   O  IDS B   5     -25.115  55.211   7.4790  0.00  0.00     0.000 OA
ENDBRANCH 83 92
BRANCH 79 95
ATOM     95  O4  SGN B   6     -21.738  57.794   9.2700  0.00  0.00     0.000 O
BRANCH 95 99
ATOM     96  C1  SGN B   6     -17.858  59.223   9.6020  0.00  0.00     0.000 C
ATOM     97  C2  SGN B   6     -18.224  58.068  10.5270  0.00  0.00     0.000 C
ATOM     98  C3  SGN B   6     -19.419  57.360   9.8880  0.00  0.00     0.000 C
ATOM     99  C4  SGN B   6     -20.598  58.374   9.8770  0.00  0.00     0.000 C
ATOM    100  C5  SGN B   6     -20.133  59.586   9.0180  0.00  0.00     0.000 C
ATOM    101  O5  SGN B   6     -18.925  60.148   9.5230  0.00  0.00     0.000 O
BRANCH 97 104
ATOM    102   N  SGN B   6     -17.101  58.569  11.3250  0.00  0.00     0.000 N
ATOM    104  HD  SGN B   6     -16.354  58.307  10.9730  0.00  0.00     0.000 HD
ATOM    104 @NS  SGN B   6     -16.139  57.450  12.0840  0.00  0.00     0.000 S
ATOM    105   O  SGN B   6     -16.635  56.137  11.7380  0.00  0.00     0.000 OA
ATOM    106   O  SGN B   6     -14.792  57.668  11.6070  0.00  0.00     0.000 OA
ATOM    107   O  SGN B   6     -16.270  57.705  13.5010  0.00  0.00     0.000 OA
ENDBRANCH 97 104
BRANCH 100 108
ATOM    108   C  SGN B   6     -21.119  60.743   8.9040  0.00  0.00     0.000 C
ATOM    109   O  SGN B   6     -21.773  60.677   7.6610  0.00  0.00     0.000 O
ATOM    110  @S  SGN B   6     -22.862  61.685   7.1410  0.00  0.00     0.000 S
ATOM    111   O  SGN B   6     -22.414  62.996   7.5460  0.00  0.00     0.000 OA
ATOM    112   O  SGN B   6     -22.897  61.541   5.6940  0.00  0.00     0.000 OA
ATOM    113   O  SGN B   6     -24.096  61.293   7.7820  0.00  0.00     0.000 OA
ENDBRANCH 100 108
ENDBRANCH 95 99
ENDBRANCH 79 95
ENDBRANCH 78 82
ENDBRANCH 58 78
ENDBRANCH 57 61
ENDBRANCH 41 57
ENDBRANCH 40 44
ENDBRANCH 20 40
ENDBRANCH 19 23
ENDBRANCH 1 19
TORSDOF 22
ENDMDL
MODEL 54
REMARK VINA RESULT:       2.8      3.118     10.906
ROOT
ATOM      1  C1  IDS B   1     -17.696  48.316  11.6010  0.00  0.00     0.000 C
ATOM      2  C2  IDS B   1     -17.423  47.447  10.4010  0.00  0.00     0.000 C
ATOM      3  C3  IDS B   1     -16.966  48.182   9.1190  0.00  0.00     0.000 C
ATOM      4  C4  IDS B   1     -16.204  49.531   9.3990  0.00  0.00     0.000 C
ATOM      5  C5  IDS B   1     -16.642  50.199  10.7250  0.00  0.00     0.000 C
ATOM      6  O5  IDS B   1     -16.650  49.253  11.7610  0.00  0.00     0.000 O
ATOM      7   O  IDS B   1     -18.127  48.406   8.3240  0.00  0.00     0.000 O
ATOM      9  HD  IDS B   1     -17.519  48.987   8.1180  0.00  0.00     0.000 HD
ATOM      9   O  IDS B   1     -14.829  49.234   9.4950  0.00  0.00     0.000 O
ATOM     11  HD  IDS B   1     -14.221  49.816   9.2890  0.00  0.00     0.000 HD
ENDROOT
BRANCH 2 11
ATOM     11   O  IDS B   1     -16.427  46.533  10.7050  0.00  0.00     0.000 O
ATOM     12  @S  IDS B   1     -16.575  45.005  10.5710  0.00  0.00     0.000 S
ATOM     13   O  IDS B   1     -17.999  44.781  10.7200  0.00  0.00     0.000 OA
ATOM     14   O  IDS B   1     -16.091  44.654   9.2480  0.00  0.00     0.000 OA
ATOM     15   O  IDS B   1     -15.772  44.434  11.6340  0.00  0.00     0.000 OA
ENDBRANCH 2 11
BRANCH 5 16
ATOM     16 @CA  IDS B   1     -15.855  51.432  11.1600  0.00  0.00     0.000 C
ATOM     17   O  IDS B   1     -14.899  51.349  11.9280  0.00  0.00     0.000 OA
ATOM     18   O  IDS B   1     -16.156  52.545  10.7350  0.00  0.00     0.000 OA
ENDBRANCH 5 16
BRANCH 1 19
ATOM     19  O4  SGN B   2     -18.931  48.970  11.3950  0.00  0.00     0.000 O
BRANCH 19 23
ATOM     20  C1  SGN B   2     -22.245  49.475  13.7440  0.00  0.00     0.000 C
ATOM     21  C2  SGN B   2     -20.886  49.800  14.3250  0.00  0.00     0.000 C
ATOM     22  C3  SGN B   2     -19.941  50.117  13.2220  0.00  0.00     0.000 C
ATOM     23  C4  SGN B   2     -19.840  48.836  12.4270  0.00  0.00     0.000 C
ATOM     24  C5  SGN B   2     -21.189  48.640  11.8280  0.00  0.00     0.000 C
ATOM     25  O5  SGN B   2     -22.106  48.394  12.8320  0.00  0.00     0.000 O
ATOM     26   O  SGN B   2     -18.709  50.455  13.7540  0.00  0.00     0.000 O
ATOM     28  HD  SGN B   2     -17.887  50.490  14.0270  0.00  0.00     0.000 HD
BRANCH 21 30
ATOM     28   N  SGN B   2     -21.888  50.330  15.2030  0.00  0.00     0.000 N
ATOM     30  HD  SGN B   2     -21.729  51.173  15.0890  0.00  0.00     0.000 HD
ATOM     30 @NS  SGN B   2     -21.488  50.477  16.7720  0.00  0.00     0.000 S
ATOM     31   O  SGN B   2     -20.106  50.174  16.9330  0.00  0.00     0.000 OA
ATOM     32   O  SGN B   2     -21.757  51.827  17.0550  0.00  0.00     0.000 OA
ATOM     33   O  SGN B   2     -22.299  49.556  17.4750  0.00  0.00     0.000 OA
ENDBRANCH 21 30
BRANCH 24 34
ATOM     34   C  SGN B   2     -21.299  47.517  10.8630  0.00  0.00     0.000 C
ATOM     35   O  SGN B   2     -22.398  46.760  11.2280  0.00  0.00     0.000 O
ATOM     36  @S  SGN B   2     -22.973  45.643  10.3650  0.00  0.00     0.000 S
ATOM     37   O  SGN B   2     -22.286  44.451  10.8200  0.00  0.00     0.000 OA
ATOM     38   O  SGN B   2     -24.397  45.620  10.6100  0.00  0.00     0.000 OA
ATOM     39   O  SGN B   2     -22.656  46.019   8.9940  0.00  0.00     0.000 OA
ENDBRANCH 24 34
BRANCH 20 40
ATOM     40  O4  IDS B   3     -22.791  50.596  13.1200  0.00  0.00     0.000 O
BRANCH 40 44
ATOM     41  C1  IDS B   3     -25.725  52.487  12.7710  0.00  0.00     0.000 C
ATOM     42  C2  IDS B   3     -25.634  51.384  13.8230  0.00  0.00     0.000 C
ATOM     43  C3  IDS B   3     -25.058  50.041  13.3330  0.00  0.00     0.000 C
ATOM     44  C4  IDS B   3     -23.910  50.263  12.3690  0.00  0.00     0.000 C
ATOM     45  C5  IDS B   3     -24.214  51.377  11.3550  0.00  0.00     0.000 C
ATOM     46  O5  IDS B   3     -24.526  52.552  12.0110  0.00  0.00     0.000 O
ATOM     47   O  IDS B   3     -26.067  49.316  12.6610  0.00  0.00     0.000 O
ATOM     49  HD  IDS B   3     -25.337  49.421  13.1160  0.00  0.00     0.000 HD
BRANCH 42 49
ATOM     49   O  IDS B   3     -24.813  51.829  14.8640  0.00  0.00     0.000 O
ATOM     50   O  IDS B   3     -26.687  52.513  16.1170  0.00  0.00     0.000 OA
ATOM     51   O  IDS B   3     -24.859  51.507  17.2350  0.00  0.00     0.000 OA
ATOM     52   O  IDS B   3     -24.636  53.654  16.2790  0.00  0.00     0.000 OA
ATOM     53  @S  IDS B   3     -25.277  52.406  16.2050  0.00  0.00     0.000 S
ENDBRANCH 42 49
BRANCH 45 54
ATOM     54 @CA  IDS B   3     -23.119  51.640  10.3240  0.00  0.00     0.000 C
ATOM     55   O  IDS B   3     -22.577  50.743   9.7370  0.00  0.00     0.000 OA
ATOM     56   O  IDS B   3     -22.782  52.744  10.0500  0.00  0.00     0.000 OA
ENDBRANCH 45 54
BRANCH 41 57
ATOM     57  O4  SGN B   4     -26.834  52.270  11.9620  0.00  0.00     0.000 O
BRANCH 57 61
ATOM     58  C1  SGN B   4     -27.302  56.200  10.8050  0.00  0.00     0.000 C
ATOM     59  C2  SGN B   4     -27.861  55.847  12.1740  0.00  0.00     0.000 C
ATOM     60  C3  SGN B   4     -27.290  54.510  12.6370  0.00  0.00     0.000 C
ATOM     61  C4  SGN B   4     -27.555  53.409  11.6050  0.00  0.00     0.000 C
ATOM     62  C5  SGN B   4     -27.040  53.899  10.2540  0.00  0.00     0.000 C
ATOM     63  O5  SGN B   4     -27.612  55.146   9.9080  0.00  0.00     0.000 O
ATOM     64   O  SGN B   4     -27.912  54.147  13.8520  0.00  0.00     0.000 O
ATOM     66  HD  SGN B   4     -28.351  53.400  13.8510  0.00  0.00     0.000 HD
BRANCH 59 68
ATOM     66   N  SGN B   4     -27.540  56.893  13.1230  0.00  0.00     0.000 N
ATOM     68  HD  SGN B   4     -27.980  56.147  13.1200  0.00  0.00     0.000 HD
ATOM     68 @NS  SGN B   4     -28.307  58.340  13.0410  0.00  0.00     0.000 S
ATOM     69   O  SGN B   4     -28.494  58.672  11.6600  0.00  0.00     0.000 OA
ATOM     70   O  SGN B   4     -29.564  58.164  13.7100  0.00  0.00     0.000 OA
ATOM     71   O  SGN B   4     -27.427  59.246  13.7140  0.00  0.00     0.000 OA
ENDBRANCH 59 68
BRANCH 62 72
ATOM     72   C  SGN B   4     -27.360  52.941   9.1170  0.00  0.00     0.000 C
ATOM     73   O  SGN B   4     -26.890  51.694   9.5340  0.00  0.00     0.000 O
ATOM     74  @S  SGN B   4     -27.465  50.311   9.1800  0.00  0.00     0.000 S
ATOM     75   O  SGN B   4     -27.441  50.192   7.7690  0.00  0.00     0.000 OA
ATOM     76   O  SGN B   4     -26.576  49.388   9.8190  0.00  0.00     0.000 OA
ATOM     77   O  SGN B   4     -28.799  50.306   9.6790  0.00  0.00     0.000 OA
ENDBRANCH 62 72
BRANCH 58 78
ATOM     78  O4  IDS B   5     -25.912  56.438  10.8930  0.00  0.00     0.000 O
BRANCH 78 82
ATOM     79  C1  IDS B   5     -22.600  57.381  10.5220  0.00  0.00     0.000 C
ATOM     80  C2  IDS B   5     -23.346  57.796  11.7530  0.00  0.00     0.000 C
ATOM     81  C3  IDS B   5     -24.698  58.443  11.4660  0.00  0.00     0.000 C
ATOM     82  C4  IDS B   5     -25.492  57.697  10.4140  0.00  0.00     0.000 C
ATOM     83  C5  IDS B   5     -24.595  57.488   9.2360  0.00  0.00     0.000 C
ATOM     84  O5  IDS B   5     -23.474  56.718   9.6260  0.00  0.00     0.000 O
ATOM     85   O  IDS B   5     -24.458  59.741  10.9780  0.00  0.00     0.000 O
ATOM     87  HD  IDS B   5     -24.931  59.110  10.6210  0.00  0.00     0.000 HD
BRANCH 80 87
ATOM     87   O  IDS B   5     -23.592  56.674  12.5060  0.00  0.00     0.000 O
ATOM     88  @S  IDS B   5     -22.554  55.733  13.1230  0.00  0.00     0.000 S
ATOM     89   O  IDS B   5     -21.690  56.576  13.8680  0.00  0.00     0.000 OA
ATOM     90   O  IDS B   5     -23.298  54.816  13.9120  0.00  0.00     0.000 OA
ATOM     91   O  IDS B   5     -21.905  55.094  12.0320  0.00  0.00     0.000 OA
ENDBRANCH 80 87
BRANCH 83 92
ATOM     92 @CA  IDS B   5     -25.306  56.914   8.0170  0.00  0.00     0.000 C
ATOM     93   O  IDS B   5     -24.960  55.836   7.5290  0.00  0.00     0.000 OA
ATOM     94   O  IDS B   5     -26.245  57.524   7.4900  0.00  0.00     0.000 OA
ENDBRANCH 83 92
BRANCH 79 95
ATOM     95  O4  SGN B   6     -22.001  58.493   9.9460  0.00  0.00     0.000 O
BRANCH 95 99
ATOM     96  C1  SGN B   6     -18.788  59.118   7.3970  0.00  0.00     0.000 C
ATOM     97  C2  SGN B   6     -19.671  57.918   7.0740  0.00  0.00     0.000 C
ATOM     98  C3  SGN B   6     -21.026  58.185   7.7320  0.00  0.00     0.000 C
ATOM     99  C4  SGN B   6     -20.787  58.222   9.2680  0.00  0.00     0.000 C
ATOM    100  C5  SGN B   6     -19.791  59.385   9.5360  0.00  0.00     0.000 C
ATOM    101  O5  SGN B   6     -18.586  59.219   8.7940  0.00  0.00     0.000 O
BRANCH 97 104
ATOM    102   N  SGN B   6     -19.418  56.622   6.4380  0.00  0.00     0.000 N
ATOM    104  HD  SGN B   6     -18.565  56.506   6.3430  0.00  0.00     0.000 HD
ATOM    104 @NS  SGN B   6     -18.711  56.629   4.9370  0.00  0.00     0.000 S
ATOM    105   O  SGN B   6     -18.452  58.006   4.5790  0.00  0.00     0.000 OA
ATOM    106   O  SGN B   6     -17.495  55.855   5.0460  0.00  0.00     0.000 OA
ATOM    107   O  SGN B   6     -19.671  56.024   4.0400  0.00  0.00     0.000 OA
ENDBRANCH 97 104
BRANCH 100 108
ATOM    108   C  SGN B   6     -19.366  59.584  10.9860  0.00  0.00     0.000 C
ATOM    109   O  SGN B   6     -18.063  59.086  11.1630  0.00  0.00     0.000 O
ATOM    110  @S  SGN B   6     -17.252  59.089  12.5090  0.00  0.00     0.000 S
ATOM    111   O  SGN B   6     -18.199  58.749  13.5440  0.00  0.00     0.000 OA
ATOM    112   O  SGN B   6     -16.213  58.082  12.3660  0.00  0.00     0.000 OA
ATOM    113   O  SGN B   6     -16.730  60.430  12.6490  0.00  0.00     0.000 OA
ENDBRANCH 100 108
ENDBRANCH 95 99
ENDBRANCH 79 95
ENDBRANCH 78 82
ENDBRANCH 58 78
ENDBRANCH 57 61
ENDBRANCH 41 57
ENDBRANCH 40 44
ENDBRANCH 20 40
ENDBRANCH 19 23
ENDBRANCH 1 19
TORSDOF 22
ENDMDL
MODEL 55
REMARK VINA RESULT:       2.9      1.968      2.610
ROOT
ATOM      1  C1  IDS B   1     -23.912  56.620  13.4520  0.00  0.00     0.000 C
ATOM      2  C2  IDS B   1     -24.127  57.160  12.0620  0.00  0.00     0.000 C
ATOM      3  C3  IDS B   1     -24.907  56.243  11.0890  0.00  0.00     0.000 C
ATOM      4  C4  IDS B   1     -25.920  55.275  11.8060  0.00  0.00     0.000 C
ATOM      5  C5  IDS B   1     -25.483  54.914  13.2460  0.00  0.00     0.000 C
ATOM      6  O5  IDS B   1     -25.118  56.074  13.9450  0.00  0.00     0.000 O
ATOM      7   O  IDS B   1     -23.944  55.510  10.3380  0.00  0.00     0.000 O
ATOM      9  HD  IDS B   1     -24.693  55.075  10.3510  0.00  0.00     0.000 HD
ATOM      9   O  IDS B   1     -27.163  55.937  11.8830  0.00  0.00     0.000 O
ATOM     11  HD  IDS B   1     -27.912  55.502  11.8960  0.00  0.00     0.000 HD
ENDROOT
BRANCH 2 11
ATOM     11   O  IDS B   1     -24.833  58.351  12.1290  0.00  0.00     0.000 O
ATOM     12  @S  IDS B   1     -24.386  59.668  11.4650  0.00  0.00     0.000 S
ATOM     13   O  IDS B   1     -22.944  59.545  11.3900  0.00  0.00     0.000 OA
ATOM     14   O  IDS B   1     -25.011  59.707  10.1550  0.00  0.00     0.000 OA
ATOM     15   O  IDS B   1     -24.845  60.728  12.3400  0.00  0.00     0.000 OA
ENDBRANCH 2 11
BRANCH 5 16
ATOM     16 @CA  IDS B   1     -26.474  54.103  14.0760  0.00  0.00     0.000 C
ATOM     17   O  IDS B   1     -27.544  53.720  13.6100  0.00  0.00     0.000 OA
ATOM     18   O  IDS B   1     -26.213  53.800  15.2380  0.00  0.00     0.000 OA
ENDBRANCH 5 16
BRANCH 1 19
ATOM     19  O4  SGN B   2     -22.903  55.634  13.3860  0.00  0.00     0.000 O
BRANCH 19 23
ATOM     20  C1  SGN B   2     -19.333  55.142  15.3280  0.00  0.00     0.000 C
ATOM     21  C2  SGN B   2     -20.608  55.158  16.1430  0.00  0.00     0.000 C
ATOM     22  C3  SGN B   2     -21.751  54.762  15.2800  0.00  0.00     0.000 C
ATOM     23  C4  SGN B   2     -21.828  55.845  14.2290  0.00  0.00     0.000 C
ATOM     24  C5  SGN B   2     -20.581  55.702  13.4280  0.00  0.00     0.000 C
ATOM     25  O5  SGN B   2     -19.490  56.013  14.2170  0.00  0.00     0.000 O
ATOM     26   O  SGN B   2     -22.911  54.736  16.0350  0.00  0.00     0.000 O
ATOM     28  HD  SGN B   2     -23.675  54.884  16.4140  0.00  0.00     0.000 HD
BRANCH 21 30
ATOM     28   N  SGN B   2     -19.858  55.775  17.1990  0.00  0.00     0.000 N
ATOM     30  HD  SGN B   2     -19.065  55.523  16.9600  0.00  0.00     0.000 HD
ATOM     30 @NS  SGN B   2     -19.699  54.932  18.5790  0.00  0.00     0.000 S
ATOM     31   O  SGN B   2     -20.238  53.627  18.3960  0.00  0.00     0.000 OA
ATOM     32   O  SGN B   2     -18.310  54.893  18.7840  0.00  0.00     0.000 OA
ATOM     33   O  SGN B   2     -20.419  55.648  19.5640  0.00  0.00     0.000 OA
ENDBRANCH 21 30
BRANCH 24 34
ATOM     34   C  SGN B   2     -20.497  56.564  12.2230  0.00  0.00     0.000 C
ATOM     35   O  SGN B   2     -19.205  57.053  12.1490  0.00  0.00     0.000 O
ATOM     36  @S  SGN B   2     -18.659  57.804  10.9400  0.00  0.00     0.000 S
ATOM     37   O  SGN B   2     -18.927  59.198  11.2340  0.00  0.00     0.000 OA
ATOM     38   O  SGN B   2     -17.252  57.491  10.8570  0.00  0.00     0.000 OA
ATOM     39   O  SGN B   2     -19.406  57.288   9.8010  0.00  0.00     0.000 OA
ENDBRANCH 24 34
BRANCH 20 40
ATOM     40  O4  IDS B   3     -19.033  53.844  14.9170  0.00  0.00     0.000 O
BRANCH 40 44
ATOM     41  C1  IDS B   3     -16.950  51.038  14.6160  0.00  0.00     0.000 C
ATOM     42  C2  IDS B   3     -16.742  52.040  15.7500  0.00  0.00     0.000 C
ATOM     43  C3  IDS B   3     -16.750  53.524  15.3370  0.00  0.00     0.000 C
ATOM     44  C4  IDS B   3     -17.801  53.788  14.2780  0.00  0.00     0.000 C
ATOM     45  C5  IDS B   3     -17.818  52.696  13.1960  0.00  0.00     0.000 C
ATOM     46  O5  IDS B   3     -18.012  51.455  13.7700  0.00  0.00     0.000 O
ATOM     47   O  IDS B   3     -15.488  53.868  14.8040  0.00  0.00     0.000 O
ATOM     49  HD  IDS B   3     -16.247  54.012  15.1950  0.00  0.00     0.000 HD
BRANCH 42 49
ATOM     49   O  IDS B   3     -17.765  51.868  16.6880  0.00  0.00     0.000 O
ATOM     50   O  IDS B   3     -16.658  50.015  17.6300  0.00  0.00     0.000 OA
ATOM     51   O  IDS B   3     -17.773  51.539  19.0580  0.00  0.00     0.000 OA
ATOM     52   O  IDS B   3     -19.007  50.144  17.6090  0.00  0.00     0.000 OA
ATOM     53  @S  IDS B   3     -17.800  50.833  17.8160  0.00  0.00     0.000 S
ENDBRANCH 42 49
BRANCH 45 54
ATOM     54 @CA  IDS B   3     -18.829  52.906  12.0710  0.00  0.00     0.000 C
ATOM     55   O  IDS B   3     -19.962  52.517  12.1610  0.00  0.00     0.000 OA
ATOM     56   O  IDS B   3     -18.534  53.482  11.0770  0.00  0.00     0.000 OA
ENDBRANCH 45 54
BRANCH 41 57
ATOM     57  O4  SGN B   4     -15.763  50.880  13.9100  0.00  0.00     0.000 O
BRANCH 57 61
ATOM     58  C1  SGN B   4     -16.701  47.002  12.8730  0.00  0.00     0.000 C
ATOM     59  C2  SGN B   4     -15.769  47.156  14.0630  0.00  0.00     0.000 C
ATOM     60  C3  SGN B   4     -15.817  48.592  14.5760  0.00  0.00     0.000 C
ATOM     61  C4  SGN B   4     -15.494  49.589  13.4570  0.00  0.00     0.000 C
ATOM     62  C5  SGN B   4     -16.421  49.290  12.2820  0.00  0.00     0.000 C
ATOM     63  O5  SGN B   4     -16.319  47.937  11.8790  0.00  0.00     0.000 O
ATOM     64   O  SGN B   4     -14.858  48.741  15.6020  0.00  0.00     0.000 O
ATOM     66  HD  SGN B   4     -14.238  49.331  15.4660  0.00  0.00     0.000 HD
BRANCH 59 68
ATOM     66   N  SGN B   4     -15.044  45.954  14.4230  0.00  0.00     0.000 N
ATOM     68  HD  SGN B   4     -15.267  46.372  13.6980  0.00  0.00     0.000 HD
ATOM     68 @NS  SGN B   4     -15.860  44.625  14.9310  0.00  0.00     0.000 S
ATOM     69   O  SGN B   4     -16.962  45.056  15.7400  0.00  0.00     0.000 OA
ATOM     70   O  SGN B   4     -16.314  43.958  13.7450  0.00  0.00     0.000 OA
ATOM     71   O  SGN B   4     -14.891  43.875  15.6700  0.00  0.00     0.000 OA
ENDBRANCH 59 68
BRANCH 62 72
ATOM     72   C  SGN B   4     -16.111  50.136  11.0560  0.00  0.00     0.000 C
ATOM     73   O  SGN B   4     -14.722  50.101  10.9180  0.00  0.00     0.000 O
ATOM     74  @S  SGN B   4     -13.908  50.172   9.6140  0.00  0.00     0.000 S
ATOM     75   O  SGN B   4     -14.250  51.384   8.9670  0.00  0.00     0.000 OA
ATOM     76   O  SGN B   4     -12.545  50.155  10.0500  0.00  0.00     0.000 OA
ATOM     77   O  SGN B   4     -14.309  49.042   8.8450  0.00  0.00     0.000 OA
ENDBRANCH 62 72
BRANCH 58 78
ATOM     78  O4  IDS B   5     -18.043  47.170  13.2810  0.00  0.00     0.000 O
BRANCH 78 82
ATOM     79  C1  IDS B   5     -21.437  47.103  13.9730  0.00  0.00     0.000 C
ATOM     80  C2  IDS B   5     -20.548  46.050  14.5610  0.00  0.00     0.000 C
ATOM     81  C3  IDS B   5     -19.635  45.375  13.5420  0.00  0.00     0.000 C
ATOM     82  C4  IDS B   5     -18.979  46.363  12.5990  0.00  0.00     0.000 C
ATOM     83  C5  IDS B   5     -20.056  47.239  12.0440  0.00  0.00     0.000 C
ATOM     84  O5  IDS B   5     -20.692  47.934  13.1000  0.00  0.00     0.000 O
ATOM     85   O  IDS B   5     -20.424  44.505  12.7670  0.00  0.00     0.000 O
ATOM     87  HD  IDS B   5     -19.893  45.134  12.4990  0.00  0.00     0.000 HD
BRANCH 80 87
ATOM     87   O  IDS B   5     -19.736  46.645  15.4950  0.00  0.00     0.000 O
ATOM     88  @S  IDS B   5     -19.822  46.502  17.0160  0.00  0.00     0.000 S
ATOM     89   O  IDS B   5     -19.808  45.104  17.2550  0.00  0.00     0.000 OA
ATOM     90   O  IDS B   5     -18.689  47.192  17.5250  0.00  0.00     0.000 OA
ATOM     91   O  IDS B   5     -21.041  47.121  17.4010  0.00  0.00     0.000 OA
ENDBRANCH 80 87
BRANCH 83 92
ATOM     92 @CA  IDS B   5     -19.581  48.167  10.9330  0.00  0.00     0.000 C
ATOM     93   O  IDS B   5     -18.963  47.728   9.9600  0.00  0.00     0.000 OA
ATOM     94   O  IDS B   5     -19.803  49.383  10.9910  0.00  0.00     0.000 OA
ENDBRANCH 83 92
BRANCH 79 95
ATOM     95  O4  SGN B   6     -22.512  46.500  13.3350  0.00  0.00     0.000 O
BRANCH 95 99
ATOM     96  C1  SGN B   6     -26.345  47.869  14.1380  0.00  0.00     0.000 C
ATOM     97  C2  SGN B   6     -26.089  47.404  12.7100  0.00  0.00     0.000 C
ATOM     98  C3  SGN B   6     -24.884  46.465  12.7650  0.00  0.00     0.000 C
ATOM     99  C4  SGN B   6     -23.667  47.313  13.2330  0.00  0.00     0.000 C
ATOM    100  C5  SGN B   6     -24.023  47.861  14.6440  0.00  0.00     0.000 C
ATOM    101  O5  SGN B   6     -25.238  48.604  14.6230  0.00  0.00     0.000 O
BRANCH 97 104
ATOM    102   N  SGN B   6     -27.309  46.786  12.1790  0.00  0.00     0.000 N
ATOM    104  HD  SGN B   6     -27.267  46.755  11.3150  0.00  0.00     0.000 HD
ATOM    104 @NS  SGN B   6     -28.299  47.726  11.2370  0.00  0.00     0.000 S
ATOM    105   O  SGN B   6     -27.679  49.027  11.1110  0.00  0.00     0.000 OA
ATOM    106   O  SGN B   6     -28.422  47.055   9.9640  0.00  0.00     0.000 OA
ATOM    107   O  SGN B   6     -29.559  47.810  11.9410  0.00  0.00     0.000 OA
ENDBRANCH 97 104
BRANCH 100 108
ATOM    108   C  SGN B   6     -22.986  48.773  15.2900  0.00  0.00     0.000 C
ATOM    109   O  SGN B   6     -23.231  50.103  14.9070  0.00  0.00     0.000 O
ATOM    110  @S  SGN B   6     -22.390  51.357  15.3460  0.00  0.00     0.000 S
ATOM    111   O  SGN B   6     -21.009  50.939  15.3130  0.00  0.00     0.000 OA
ATOM    112   O  SGN B   6     -22.670  52.400  14.3730  0.00  0.00     0.000 OA
ATOM    113   O  SGN B   6     -22.844  51.685  16.6790  0.00  0.00     0.000 OA
ENDBRANCH 100 108
ENDBRANCH 95 99
ENDBRANCH 79 95
ENDBRANCH 78 82
ENDBRANCH 58 78
ENDBRANCH 57 61
ENDBRANCH 41 57
ENDBRANCH 40 44
ENDBRANCH 20 40
ENDBRANCH 19 23
ENDBRANCH 1 19
TORSDOF 22
ENDMDL
MODEL 56
REMARK VINA RESULT:       2.9      2.644      7.921
ROOT
ATOM      1  C1  IDS B   1     -24.139  58.936  10.2200  0.00  0.00     0.000 C
ATOM      2  C2  IDS B   1     -23.749  58.872   8.7660  0.00  0.00     0.000 C
ATOM      3  C3  IDS B   1     -24.886  58.535   7.7710  0.00  0.00     0.000 C
ATOM      4  C4  IDS B   1     -26.312  58.983   8.2650  0.00  0.00     0.000 C
ATOM      5  C5  IDS B   1     -26.429  59.009   9.8080  0.00  0.00     0.000 C
ATOM      6  O5  IDS B   1     -25.331  59.681  10.3630  0.00  0.00     0.000 O
ATOM      7   O  IDS B   1     -24.843  57.130   7.5410  0.00  0.00     0.000 O
ATOM      9  HD  IDS B   1     -25.640  57.426   7.3780  0.00  0.00     0.000 HD
ATOM      9   O  IDS B   1     -26.538  60.292   7.7900  0.00  0.00     0.000 O
ATOM     11  HD  IDS B   1     -27.335  60.587   7.6260  0.00  0.00     0.000 HD
ENDROOT
BRANCH 2 11
ATOM     11   O  IDS B   1     -23.230  60.093   8.3680  0.00  0.00     0.000 O
ATOM     12  @S  IDS B   1     -21.767  60.529   8.5790  0.00  0.00     0.000 S
ATOM     13   O  IDS B   1     -21.343  59.770   9.7380  0.00  0.00     0.000 OA
ATOM     14   O  IDS B   1     -21.045  60.158   7.3750  0.00  0.00     0.000 OA
ATOM     15   O  IDS B   1     -21.807  61.962   8.7920  0.00  0.00     0.000 OA
ENDBRANCH 2 11
BRANCH 5 16
ATOM     16 @CA  IDS B   1     -27.724  59.574  10.3840  0.00  0.00     0.000 C
ATOM     17   O  IDS B   1     -27.814  59.905  11.5640  0.00  0.00     0.000 OA
ATOM     18   O  IDS B   1     -28.711  59.725   9.6680  0.00  0.00     0.000 OA
ENDBRANCH 5 16
BRANCH 1 19
ATOM     19  O4  SGN B   2     -24.312  57.613  10.6840  0.00  0.00     0.000 O
BRANCH 19 23
ATOM     20  C1  SGN B   2     -23.167  55.668  14.0990  0.00  0.00     0.000 C
ATOM     21  C2  SGN B   2     -24.135  56.825  14.2120  0.00  0.00     0.000 C
ATOM     22  C3  SGN B   2     -24.852  56.997  12.9220  0.00  0.00     0.000 C
ATOM     23  C4  SGN B   2     -23.770  57.359  11.9300  0.00  0.00     0.000 C
ATOM     24  C5  SGN B   2     -22.918  56.142  11.8200  0.00  0.00     0.000 C
ATOM     25  O5  SGN B   2     -22.275  55.922  13.0220  0.00  0.00     0.000 O
ATOM     26   O  SGN B   2     -25.768  58.029  13.0360  0.00  0.00     0.000 O
ATOM     28  HD  SGN B   2     -26.211  58.772  13.0040  0.00  0.00     0.000 HD
BRANCH 21 30
ATOM     28   N  SGN B   2     -23.689  56.398  15.5060  0.00  0.00     0.000 N
ATOM     30  HD  SGN B   2     -24.150  55.667  15.5680  0.00  0.00     0.000 HD
ATOM     30 @NS  SGN B   2     -24.483  56.994  16.7920  0.00  0.00     0.000 S
ATOM     31   O  SGN B   2     -25.610  57.741  16.3430  0.00  0.00     0.000 OA
ATOM     32   O  SGN B   2     -24.875  55.845  17.5000  0.00  0.00     0.000 OA
ATOM     33   O  SGN B   2     -23.563  57.822  17.4770  0.00  0.00     0.000 OA
ENDBRANCH 21 30
BRANCH 24 34
ATOM     34   C  SGN B   2     -21.866  56.195  10.7750  0.00  0.00     0.000 C
ATOM     35   O  SGN B   2     -22.355  55.544   9.6560  0.00  0.00     0.000 O
ATOM     36  @S  SGN B   2     -21.660  55.567   8.3000  0.00  0.00     0.000 S
ATOM     37   O  SGN B   2     -20.798  54.402   8.3200  0.00  0.00     0.000 OA
ATOM     38   O  SGN B   2     -22.700  55.500   7.3000  0.00  0.00     0.000 OA
ATOM     39   O  SGN B   2     -20.940  56.833   8.2610  0.00  0.00     0.000 OA
ENDBRANCH 24 34
BRANCH 20 40
ATOM     40  O4  IDS B   3     -23.856  54.470  13.9150  0.00  0.00     0.000 O
BRANCH 40 44
ATOM     41  C1  IDS B   3     -24.389  51.008  14.0860  0.00  0.00     0.000 C
ATOM     42  C2  IDS B   3     -25.534  51.982  14.3550  0.00  0.00     0.000 C
ATOM     43  C3  IDS B   3     -25.205  53.151  15.3050  0.00  0.00     0.000 C
ATOM     44  C4  IDS B   3     -23.806  53.677  15.0530  0.00  0.00     0.000 C
ATOM     45  C5  IDS B   3     -22.788  52.542  14.8600  0.00  0.00     0.000 C
ATOM     46  O5  IDS B   3     -23.183  51.713  13.8290  0.00  0.00     0.000 O
ATOM     47   O  IDS B   3     -25.275  52.701  16.6420  0.00  0.00     0.000 O
ATOM     49  HD  IDS B   3     -25.307  53.281  16.0000  0.00  0.00     0.000 HD
BRANCH 42 49
ATOM     49   O  IDS B   3     -25.937  52.542  13.1380  0.00  0.00     0.000 O
ATOM     50   O  IDS B   3     -27.240  50.644  12.6400  0.00  0.00     0.000 OA
ATOM     51   O  IDS B   3     -28.067  52.790  12.0780  0.00  0.00     0.000 OA
ATOM     52   O  IDS B   3     -26.209  51.892  10.9320  0.00  0.00     0.000 OA
ATOM     53  @S  IDS B   3     -26.925  51.932  12.1400  0.00  0.00     0.000 S
ENDBRANCH 42 49
BRANCH 45 54
ATOM     54 @CA  IDS B   3     -21.345  52.990  14.6360  0.00  0.00     0.000 C
ATOM     55   O  IDS B   3     -20.664  53.398  15.5370  0.00  0.00     0.000 OA
ATOM     56   O  IDS B   3     -20.840  52.927  13.5640  0.00  0.00     0.000 OA
ENDBRANCH 45 54
BRANCH 41 57
ATOM     57  O4  SGN B   4     -24.256  50.137  15.1610  0.00  0.00     0.000 O
BRANCH 57 61
ATOM     58  C1  SGN B   4     -21.337  47.530  13.8650  0.00  0.00     0.000 C
ATOM     59  C2  SGN B   4     -22.601  47.570  13.0240  0.00  0.00     0.000 C
ATOM     60  C3  SGN B   4     -23.410  48.819  13.3650  0.00  0.00     0.000 C
ATOM     61  C4  SGN B   4     -23.714  48.887  14.8660  0.00  0.00     0.000 C
ATOM     62  C5  SGN B   4     -22.393  48.746  15.6170  0.00  0.00     0.000 C
ATOM     63  O5  SGN B   4     -21.706  47.570  15.2330  0.00  0.00     0.000 O
ATOM     64   O  SGN B   4     -24.634  48.775  12.6600  0.00  0.00     0.000 O
ATOM     66  HD  SGN B   4     -25.354  48.775  13.1400  0.00  0.00     0.000 HD
BRANCH 59 68
ATOM     66   N  SGN B   4     -22.541  46.306  12.3200  0.00  0.00     0.000 N
ATOM     68  HD  SGN B   4     -22.195  46.657  13.0310  0.00  0.00     0.000 HD
ATOM     68 @NS  SGN B   4     -21.690  46.184  10.9230  0.00  0.00     0.000 S
ATOM     69   O  SGN B   4     -21.864  47.398  10.1820  0.00  0.00     0.000 OA
ATOM     70   O  SGN B   4     -20.320  45.999  11.3060  0.00  0.00     0.000 OA
ATOM     71   O  SGN B   4     -22.254  45.046  10.2620  0.00  0.00     0.000 OA
ENDBRANCH 59 68
BRANCH 62 72
ATOM     72   C  SGN B   4     -22.576  48.672  17.1250  0.00  0.00     0.000 C
ATOM     73   O  SGN B   4     -22.003  47.459  17.5130  0.00  0.00     0.000 O
ATOM     74  @S  SGN B   4     -21.310  47.135  18.8480  0.00  0.00     0.000 S
ATOM     75   O  SGN B   4     -22.249  47.374  19.8810  0.00  0.00     0.000 OA
ATOM     76   O  SGN B   4     -20.966  45.750  18.7380  0.00  0.00     0.000 OA
ATOM     77   O  SGN B   4     -20.203  48.026  18.9370  0.00  0.00     0.000 OA
ENDBRANCH 62 72
BRANCH 58 78
ATOM     78  O4  IDS B   5     -20.480  48.596  13.5090  0.00  0.00     0.000 O
BRANCH 78 82
ATOM     79  C1  IDS B   5     -17.961  50.834  12.7080  0.00  0.00     0.000 C
ATOM     80  C2  IDS B   5     -18.386  49.816  11.6940  0.00  0.00     0.000 C
ATOM     81  C3  IDS B   5     -18.440  48.390  12.2360  0.00  0.00     0.000 C
ATOM     82  C4  IDS B   5     -19.102  48.307  13.5970  0.00  0.00     0.000 C
ATOM     83  C5  IDS B   5     -18.451  49.325  14.4770  0.00  0.00     0.000 C
ATOM     84  O5  IDS B   5     -18.644  50.616  13.9300  0.00  0.00     0.000 O
ATOM     85   O  IDS B   5     -17.116  47.934  12.3770  0.00  0.00     0.000 O
ATOM     87  HD  IDS B   5     -17.747  47.949  12.9700  0.00  0.00     0.000 HD
BRANCH 80 87
ATOM     87   O  IDS B   5     -19.654  50.133  11.2740  0.00  0.00     0.000 O
ATOM     88  @S  IDS B   5     -20.093  50.479   9.8490  0.00  0.00     0.000 S
ATOM     89   O  IDS B   5     -19.624  49.406   9.0480  0.00  0.00     0.000 OA
ATOM     90   O  IDS B   5     -21.508  50.590   9.9060  0.00  0.00     0.000 OA
ATOM     91   O  IDS B   5     -19.473  51.719   9.5380  0.00  0.00     0.000 OA
ENDBRANCH 80 87
BRANCH 83 92
ATOM     92 @CA  IDS B   5     -18.880  49.237  15.9370  0.00  0.00     0.000 C
ATOM     93   O  IDS B   5     -19.412  50.196  16.5010  0.00  0.00     0.000 OA
ATOM     94   O  IDS B   5     -18.697  48.200  16.5860  0.00  0.00     0.000 OA
ENDBRANCH 83 92
BRANCH 79 95
ATOM     95  O4  SGN B   6     -16.581  50.787  12.8620  0.00  0.00     0.000 O
BRANCH 95 99
ATOM     96  C1  SGN B   6     -13.715  53.138  14.7230  0.00  0.00     0.000 C
ATOM     97  C2  SGN B   6     -14.580  52.287  15.6450  0.00  0.00     0.000 C
ATOM     98  C3  SGN B   6     -15.134  51.146  14.7930  0.00  0.00     0.000 C
ATOM     99  C4  SGN B   6     -16.050  51.787  13.7110  0.00  0.00     0.000 C
ATOM    100  C5  SGN B   6     -15.148  52.735  12.8700  0.00  0.00     0.000 C
ATOM    101  O5  SGN B   6     -14.501  53.702  13.6910  0.00  0.00     0.000 O
BRANCH 97 104
ATOM    102   N  SGN B   6     -13.842  51.802  16.8150  0.00  0.00     0.000 N
ATOM    104  HD  SGN B   6     -14.397  51.620  17.4540  0.00  0.00     0.000 HD
ATOM    104 @NS  SGN B   6     -13.896  52.722  18.1940  0.00  0.00     0.000 S
ATOM    105   O  SGN B   6     -14.746  53.862  17.9280  0.00  0.00     0.000 OA
ATOM    106   O  SGN B   6     -14.426  51.876  19.2380  0.00  0.00     0.000 OA
ATOM    107   O  SGN B   6     -12.534  53.132  18.4550  0.00  0.00     0.000 OA
ENDBRANCH 97 104
BRANCH 100 108
ATOM    108   C  SGN B   6     -15.847  53.521  11.7670  0.00  0.00     0.000 C
ATOM    109   O  SGN B   6     -16.805  54.376  12.3390  0.00  0.00     0.000 O
ATOM    110  @S  SGN B   6     -17.750  55.356  11.5520  0.00  0.00     0.000 S
ATOM    111   O  SGN B   6     -18.174  54.637  10.3750  0.00  0.00     0.000 OA
ATOM    112   O  SGN B   6     -18.861  55.656  12.4410  0.00  0.00     0.000 OA
ATOM    113   O  SGN B   6     -16.942  56.513  11.2400  0.00  0.00     0.000 OA
ENDBRANCH 100 108
ENDBRANCH 95 99
ENDBRANCH 79 95
ENDBRANCH 78 82
ENDBRANCH 58 78
ENDBRANCH 57 61
ENDBRANCH 41 57
ENDBRANCH 40 44
ENDBRANCH 20 40
ENDBRANCH 19 23
ENDBRANCH 1 19
TORSDOF 22
ENDMDL
MODEL 57
REMARK VINA RESULT:       2.9      4.847     10.437
ROOT
ATOM      1  C1  IDS B   1     -16.731  51.854  13.1990  0.00  0.00     0.000 C
ATOM      2  C2  IDS B   1     -16.163  52.465  11.9450  0.00  0.00     0.000 C
ATOM      3  C3  IDS B   1     -16.237  54.008  11.8460  0.00  0.00     0.000 C
ATOM      4  C4  IDS B   1     -16.223  54.733  13.2430  0.00  0.00     0.000 C
ATOM      5  C5  IDS B   1     -16.824  53.863  14.3740  0.00  0.00     0.000 C
ATOM      6  O5  IDS B   1     -16.278  52.572  14.3290  0.00  0.00     0.000 O
ATOM      7   O  IDS B   1     -17.417  54.327  11.1150  0.00  0.00     0.000 O
ATOM      9  HD  IDS B   1     -17.196  54.999  11.6160  0.00  0.00     0.000 HD
ATOM      9   O  IDS B   1     -14.880  55.006  13.5710  0.00  0.00     0.000 O
ATOM     11  HD  IDS B   1     -14.658  55.677  14.0720  0.00  0.00     0.000 HD
ENDROOT
BRANCH 2 11
ATOM     11   O  IDS B   1     -14.823  52.129  11.8280  0.00  0.00     0.000 O
ATOM     12  @S  IDS B   1     -14.114  51.827  10.4940  0.00  0.00     0.000 S
ATOM     13   O  IDS B   1     -15.180  51.354   9.6340  0.00  0.00     0.000 OA
ATOM     14   O  IDS B   1     -13.541  53.079  10.0350  0.00  0.00     0.000 OA
ATOM     15   O  IDS B   1     -13.110  50.826  10.7980  0.00  0.00     0.000 OA
ENDBRANCH 2 11
BRANCH 5 16
ATOM     16 @CA  IDS B   1     -16.718  54.418  15.7910  0.00  0.00     0.000 C
ATOM     17   O  IDS B   1     -16.368  55.576  16.0050  0.00  0.00     0.000 OA
ATOM     18   O  IDS B   1     -16.998  53.714  16.7590  0.00  0.00     0.000 OA
ENDBRANCH 5 16
BRANCH 1 19
ATOM     19  O4  SGN B   2     -18.140  51.898  13.1070  0.00  0.00     0.000 O
BRANCH 19 23
ATOM     20  C1  SGN B   2     -21.093  49.227  14.0560  0.00  0.00     0.000 C
ATOM     21  C2  SGN B   2     -20.265  49.822  15.1740  0.00  0.00     0.000 C
ATOM     22  C3  SGN B   2     -19.702  51.124  14.7320  0.00  0.00     0.000 C
ATOM     23  C4  SGN B   2     -18.789  50.773  13.5800  0.00  0.00     0.000 C
ATOM     24  C5  SGN B   2     -19.690  50.277  12.5030  0.00  0.00     0.000 C
ATOM     25  O5  SGN B   2     -20.274  49.090  12.9040  0.00  0.00     0.000 O
ATOM     26   O  SGN B   2     -18.979  51.690  15.7670  0.00  0.00     0.000 O
ATOM     28  HD  SGN B   2     -18.374  51.988  16.3110  0.00  0.00     0.000 HD
BRANCH 21 30
ATOM     28   N  SGN B   2     -20.420  48.576  15.8660  0.00  0.00     0.000 N
ATOM     30  HD  SGN B   2     -21.135  48.293  15.4670  0.00  0.00     0.000 HD
ATOM     30 @NS  SGN B   2     -21.233  48.611  17.2730  0.00  0.00     0.000 S
ATOM     31   O  SGN B   2     -21.780  49.912  17.4660  0.00  0.00     0.000 OA
ATOM     32   O  SGN B   2     -22.241  47.649  17.0960  0.00  0.00     0.000 OA
ATOM     33   O  SGN B   2     -20.292  48.298  18.2810  0.00  0.00     0.000 OA
ENDBRANCH 21 30
BRANCH 24 34
ATOM     34   C  SGN B   2     -19.036  50.013  11.1970  0.00  0.00     0.000 C
ATOM     35   O  SGN B   2     -18.687  48.675  11.1680  0.00  0.00     0.000 O
ATOM     36  @S  SGN B   2     -18.186  47.964   9.9170  0.00  0.00     0.000 S
ATOM     37   O  SGN B   2     -16.744  48.104   9.9800  0.00  0.00     0.000 OA
ATOM     38   O  SGN B   2     -18.638  46.595  10.0070  0.00  0.00     0.000 OA
ATOM     39   O  SGN B   2     -18.799  48.674   8.8030  0.00  0.00     0.000 OA
ENDBRANCH 24 34
BRANCH 20 40
ATOM     40  O4  IDS B   3     -22.207  50.024  13.7950  0.00  0.00     0.000 O
BRANCH 40 44
ATOM     41  C1  IDS B   3     -25.474  51.115  13.1320  0.00  0.00     0.000 C
ATOM     42  C2  IDS B   3     -24.808  51.428  14.4700  0.00  0.00     0.000 C
ATOM     43  C3  IDS B   3     -24.101  50.243  15.1560  0.00  0.00     0.000 C
ATOM     44  C4  IDS B   3     -23.385  49.376  14.1400  0.00  0.00     0.000 C
ATOM     45  C5  IDS B   3     -24.239  49.132  12.8860  0.00  0.00     0.000 C
ATOM     46  O5  IDS B   3     -24.612  50.334  12.3170  0.00  0.00     0.000 O
ATOM     47   O  IDS B   3     -25.060  49.447  15.8210  0.00  0.00     0.000 O
ATOM     49  HD  IDS B   3     -24.275  49.781  15.6730  0.00  0.00     0.000 HD
BRANCH 42 49
ATOM     49   O  IDS B   3     -23.844  52.421  14.2660  0.00  0.00     0.000 O
ATOM     50   O  IDS B   3     -24.400  53.451  16.3100  0.00  0.00     0.000 OA
ATOM     51   O  IDS B   3     -22.128  53.344  15.6550  0.00  0.00     0.000 OA
ATOM     52   O  IDS B   3     -23.644  54.718  14.4780  0.00  0.00     0.000 OA
ATOM     53  @S  IDS B   3     -23.480  53.547  15.2370  0.00  0.00     0.000 S
ENDBRANCH 42 49
BRANCH 45 54
ATOM     54 @CA  IDS B   3     -23.602  48.237  11.8250  0.00  0.00     0.000 C
ATOM     55   O  IDS B   3     -23.098  48.693  10.8350  0.00  0.00     0.000 OA
ATOM     56   O  IDS B   3     -23.562  47.058  11.9560  0.00  0.00     0.000 OA
ENDBRANCH 45 54
BRANCH 41 57
ATOM     57  O4  SGN B   4     -26.688  50.477  13.3530  0.00  0.00     0.000 O
BRANCH 57 61
ATOM     58  C1  SGN B   4     -30.015  49.943  10.9770  0.00  0.00     0.000 C
ATOM     59  C2  SGN B   4     -29.326  48.669  11.4380  0.00  0.00     0.000 C
ATOM     60  C3  SGN B   4     -28.383  48.981  12.5960  0.00  0.00     0.000 C
ATOM     61  C4  SGN B   4     -27.378  50.073  12.2110  0.00  0.00     0.000 C
ATOM     62  C5  SGN B   4     -28.165  51.267  11.6780  0.00  0.00     0.000 C
ATOM     63  O5  SGN B   4     -29.020  50.886  10.6160  0.00  0.00     0.000 O
ATOM     64   O  SGN B   4     -27.667  47.809  12.9280  0.00  0.00     0.000 O
ATOM     66  HD  SGN B   4     -26.805  47.852  12.8590  0.00  0.00     0.000 HD
BRANCH 59 68
ATOM     66   N  SGN B   4     -29.725  47.572  10.5810  0.00  0.00     0.000 N
ATOM     68  HD  SGN B   4     -29.598  48.425  10.5070  0.00  0.00     0.000 HD
ATOM     68 @NS  SGN B   4     -31.231  46.936  10.7070  0.00  0.00     0.000 S
ATOM     69   O  SGN B   4     -31.598  46.921  12.0920  0.00  0.00     0.000 OA
ATOM     70   O  SGN B   4     -32.092  47.798   9.9490  0.00  0.00     0.000 OA
ATOM     71   O  SGN B   4     -31.110  45.623  10.1520  0.00  0.00     0.000 OA
ENDBRANCH 59 68
BRANCH 62 72
ATOM     72   C  SGN B   4     -27.270  52.374  11.1420  0.00  0.00     0.000 C
ATOM     73   O  SGN B   4     -26.970  52.009   9.8280  0.00  0.00     0.000 O
ATOM     74  @S  SGN B   4     -26.705  52.944   8.6340  0.00  0.00     0.000 S
ATOM     75   O  SGN B   4     -25.610  53.772   8.9810  0.00  0.00     0.000 OA
ATOM     76   O  SGN B   4     -26.394  52.056   7.5550  0.00  0.00     0.000 OA
ATOM     77   O  SGN B   4     -27.898  53.704   8.4640  0.00  0.00     0.000 OA
ENDBRANCH 62 72
BRANCH 58 78
ATOM     78  O4  IDS B   5     -30.872  50.428  11.9900  0.00  0.00     0.000 O
BRANCH 78 82
ATOM     79  C1  IDS B   5     -33.248  51.916  14.0240  0.00  0.00     0.000 C
ATOM     80  C2  IDS B   5     -33.384  50.464  13.6790  0.00  0.00     0.000 C
ATOM     81  C3  IDS B   5     -33.263  50.171  12.1860  0.00  0.00     0.000 C
ATOM     82  C4  IDS B   5     -32.116  50.916  11.5350  0.00  0.00     0.000 C
ATOM     83  C5  IDS B   5     -32.237  52.356  11.9190  0.00  0.00     0.000 C
ATOM     84  O5  IDS B   5     -32.152  52.479  13.3260  0.00  0.00     0.000 O
ATOM     85   O  IDS B   5     -34.453  50.596  11.5670  0.00  0.00     0.000 O
ATOM     87  HD  IDS B   5     -33.637  50.807  11.3680  0.00  0.00     0.000 HD
BRANCH 80 87
ATOM     87   O  IDS B   5     -32.374  49.777  14.3050  0.00  0.00     0.000 O
ATOM     88  @S  IDS B   5     -32.432  49.100  15.6770  0.00  0.00     0.000 S
ATOM     89   O  IDS B   5     -33.566  48.250  15.6200  0.00  0.00     0.000 OA
ATOM     90   O  IDS B   5     -31.195  48.414  15.8120  0.00  0.00     0.000 OA
ATOM     91   O  IDS B   5     -32.568  50.148  16.6270  0.00  0.00     0.000 OA
ENDBRANCH 80 87
BRANCH 83 92
ATOM     92 @CA  IDS B   5     -31.260  53.270  11.1900  0.00  0.00     0.000 C
ATOM     93   O  IDS B   5     -31.198  53.278   9.9580  0.00  0.00     0.000 OA
ATOM     94   O  IDS B   5     -30.507  54.019  11.8220  0.00  0.00     0.000 OA
ENDBRANCH 83 92
BRANCH 79 95
ATOM     95  O4  SGN B   6     -34.440  52.572  13.7480  0.00  0.00     0.000 O
BRANCH 95 99
ATOM     96  C1  SGN B   6     -33.827  55.492  16.6300  0.00  0.00     0.000 C
ATOM     97  C2  SGN B   6     -34.789  54.374  17.0100  0.00  0.00     0.000 C
ATOM     98  C3  SGN B   6     -34.453  53.184  16.1090  0.00  0.00     0.000 C
ATOM     99  C4  SGN B   6     -34.756  53.620  14.6470  0.00  0.00     0.000 C
ATOM    100  C5  SGN B   6     -33.834  54.836  14.3450  0.00  0.00     0.000 C
ATOM    101  O5  SGN B   6     -34.033  55.886  15.2870  0.00  0.00     0.000 O
BRANCH 97 104
ATOM    102   N  SGN B   6     -34.490  54.708  18.4050  0.00  0.00     0.000 N
ATOM    104  HD  SGN B   6     -34.702  54.041  18.9160  0.00  0.00     0.000 HD
ATOM    104 @NS  SGN B   6     -35.766  54.804  19.4620  0.00  0.00     0.000 S
ATOM    105   O  SGN B   6     -36.970  54.481  18.7280  0.00  0.00     0.000 OA
ATOM    106   O  SGN B   6     -35.501  53.858  20.5210  0.00  0.00     0.000 OA
ATOM    107   O  SGN B   6     -35.790  56.170  19.9360  0.00  0.00     0.000 OA
ENDBRANCH 97 104
BRANCH 100 108
ATOM    108   C  SGN B   6     -33.992  55.471  12.9690  0.00  0.00     0.000 C
ATOM    109   O  SGN B   6     -35.359  55.576  12.6580  0.00  0.00     0.000 O
ATOM    110  @S  SGN B   6     -35.957  56.170  11.3310  0.00  0.00     0.000 S
ATOM    111   O  SGN B   6     -35.106  55.696  10.2660  0.00  0.00     0.000 OA
ATOM    112   O  SGN B   6     -37.311  55.650  11.2220  0.00  0.00     0.000 OA
ATOM    113   O  SGN B   6     -35.909  57.606  11.4870  0.00  0.00     0.000 OA
ENDBRANCH 100 108
ENDBRANCH 95 99
ENDBRANCH 79 95
ENDBRANCH 78 82
ENDBRANCH 58 78
ENDBRANCH 57 61
ENDBRANCH 41 57
ENDBRANCH 40 44
ENDBRANCH 20 40
ENDBRANCH 19 23
ENDBRANCH 1 19
TORSDOF 22
ENDMDL
MODEL 58
REMARK VINA RESULT:       2.9      3.750      9.173
ROOT
ATOM      1  C1  IDS B   1     -24.620  61.090   9.8410  0.00  0.00     0.000 C
ATOM      2  C2  IDS B   1     -26.004  61.608  10.1290  0.00  0.00     0.000 C
ATOM      3  C3  IDS B   1     -26.239  62.169  11.5520  0.00  0.00     0.000 C
ATOM      4  C4  IDS B   1     -24.941  62.754  12.2240  0.00  0.00     0.000 C
ATOM      5  C5  IDS B   1     -23.647  62.074  11.7140  0.00  0.00     0.000 C
ATOM      6  O5  IDS B   1     -23.656  62.010  10.3130  0.00  0.00     0.000 O
ATOM      7   O  IDS B   1     -26.789  61.115  12.3360  0.00  0.00     0.000 O
ATOM      9  HD  IDS B   1     -26.400  61.688  12.8550  0.00  0.00     0.000 HD
ATOM      9   O  IDS B   1     -24.869  64.124  11.8980  0.00  0.00     0.000 O
ATOM     11  HD  IDS B   1     -24.480  64.697  12.4180  0.00  0.00     0.000 HD
ENDROOT
BRANCH 2 11
ATOM     11   O  IDS B   1     -26.310  62.634   9.2480  0.00  0.00     0.000 O
ATOM     12  @S  IDS B   1     -27.574  62.679   8.3680  0.00  0.00     0.000 S
ATOM     13   O  IDS B   1     -27.922  61.283   8.1910  0.00  0.00     0.000 OA
ATOM     14   O  IDS B   1     -28.577  63.413   9.1170  0.00  0.00     0.000 OA
ATOM     15   O  IDS B   1     -27.180  63.350   7.1450  0.00  0.00     0.000 OA
ENDBRANCH 2 11
BRANCH 5 16
ATOM     16 @CA  IDS B   1     -22.328  62.673  12.1930  0.00  0.00     0.000 C
ATOM     17   O  IDS B   1     -21.285  62.022  12.1900  0.00  0.00     0.000 OA
ATOM     18   O  IDS B   1     -22.277  63.837  12.5830  0.00  0.00     0.000 OA
ENDBRANCH 5 16
BRANCH 1 19
ATOM     19  O4  SGN B   2     -24.479  59.840  10.4840  0.00  0.00     0.000 O
BRANCH 19 23
ATOM     20  C1  SGN B   2     -23.153  56.185   9.2010  0.00  0.00     0.000 C
ATOM     21  C2  SGN B   2     -22.327  57.411   8.8810  0.00  0.00     0.000 C
ATOM     22  C3  SGN B   2     -22.621  58.478   9.8730  0.00  0.00     0.000 C
ATOM     23  C4  SGN B   2     -24.082  58.804   9.6600  0.00  0.00     0.000 C
ATOM     24  C5  SGN B   2     -24.820  57.578  10.0760  0.00  0.00     0.000 C
ATOM     25  O5  SGN B   2     -24.527  56.548   9.2030  0.00  0.00     0.000 O
ATOM     26   O  SGN B   2     -21.835  59.586   9.6070  0.00  0.00     0.000 O
ATOM     28  HD  SGN B   2     -21.508  60.352   9.3710  0.00  0.00     0.000 HD
BRANCH 21 30
ATOM     28   N  SGN B   2     -21.915  56.910   7.6030  0.00  0.00     0.000 N
ATOM     30  HD  SGN B   2     -22.173  56.089   7.6950  0.00  0.00     0.000 HD
ATOM     30 @NS  SGN B   2     -20.377  56.401   7.4710  0.00  0.00     0.000 S
ATOM     31   O  SGN B   2     -19.766  56.420   8.7570  0.00  0.00     0.000 OA
ATOM     32   O  SGN B   2     -20.505  55.091   6.9800  0.00  0.00     0.000 OA
ATOM     33   O  SGN B   2     -19.737  57.301   6.5880  0.00  0.00     0.000 OA
ENDBRANCH 21 30
BRANCH 24 34
ATOM     34   C  SGN B   2     -26.298  57.706  10.1070  0.00  0.00     0.000 C
ATOM     35   O  SGN B   2     -26.691  57.687  11.4330  0.00  0.00     0.000 O
ATOM     36  @S  SGN B   2     -28.108  58.008  11.8950  0.00  0.00     0.000 S
ATOM     37   O  SGN B   2     -28.776  56.722  11.9150  0.00  0.00     0.000 OA
ATOM     38   O  SGN B   2     -27.991  58.620  13.1980  0.00  0.00     0.000 OA
ATOM     39   O  SGN B   2     -28.634  58.930  10.8980  0.00  0.00     0.000 OA
ENDBRANCH 24 34
BRANCH 20 40
ATOM     40  O4  IDS B   3     -22.770  55.644  10.4280  0.00  0.00     0.000 O
BRANCH 40 44
ATOM     41  C1  IDS B   3     -21.713  53.357  12.8680  0.00  0.00     0.000 C
ATOM     42  C2  IDS B   3     -20.987  53.451  11.5270  0.00  0.00     0.000 C
ATOM     43  C3  IDS B   3     -21.892  53.477  10.2800  0.00  0.00     0.000 C
ATOM     44  C4  IDS B   3     -23.135  54.308  10.5280  0.00  0.00     0.000 C
ATOM     45  C5  IDS B   3     -23.748  54.031  11.9090  0.00  0.00     0.000 C
ATOM     46  O5  IDS B   3     -22.814  54.252  12.9030  0.00  0.00     0.000 O
ATOM     47   O  IDS B   3     -22.295  52.160   9.9670  0.00  0.00     0.000 O
ATOM     49  HD  IDS B   3     -22.112  52.991   9.8050  0.00  0.00     0.000 HD
BRANCH 42 49
ATOM     49   O  IDS B   3     -20.232  54.629  11.5120  0.00  0.00     0.000 O
ATOM     50   O  IDS B   3     -18.412  53.534  12.5300  0.00  0.00     0.000 OA
ATOM     51   O  IDS B   3     -17.993  55.127  10.8310  0.00  0.00     0.000 OA
ATOM     52   O  IDS B   3     -18.834  55.814  12.9270  0.00  0.00     0.000 OA
ATOM     53  @S  IDS B   3     -18.780  54.783  11.9730  0.00  0.00     0.000 S
ENDBRANCH 42 49
BRANCH 45 54
ATOM     54 @CA  IDS B   3     -25.026  54.806  12.2240  0.00  0.00     0.000 C
ATOM     55   O  IDS B   3     -26.043  54.619  11.6120  0.00  0.00     0.000 OA
ATOM     56   O  IDS B   3     -25.064  55.604  13.1010  0.00  0.00     0.000 OA
ENDBRANCH 45 54
BRANCH 41 57
ATOM     57  O4  SGN B   4     -22.110  52.044  13.0900  0.00  0.00     0.000 O
BRANCH 57 61
ATOM     58  C1  SGN B   4     -20.147  51.873  16.7110  0.00  0.00     0.000 C
ATOM     59  C2  SGN B   4     -19.944  50.675  15.7980  0.00  0.00     0.000 C
ATOM     60  C3  SGN B   4     -20.382  51.027  14.3790  0.00  0.00     0.000 C
ATOM     61  C4  SGN B   4     -21.829  51.532  14.3560  0.00  0.00     0.000 C
ATOM     62  C5  SGN B   4     -21.944  52.668  15.3700  0.00  0.00     0.000 C
ATOM     63  O5  SGN B   4     -21.510  52.258  16.6530  0.00  0.00     0.000 O
ATOM     64   O  SGN B   4     -20.298  49.868  13.5760  0.00  0.00     0.000 O
ATOM     66  HD  SGN B   4     -21.035  49.599  13.2110  0.00  0.00     0.000 HD
BRANCH 59 68
ATOM     66   N  SGN B   4     -18.514  50.509  15.9600  0.00  0.00     0.000 N
ATOM     68  HD  SGN B   4     -19.130  50.242  15.4130  0.00  0.00     0.000 HD
ATOM     68 @NS  SGN B   4     -17.931  49.528  17.1370  0.00  0.00     0.000 S
ATOM     69   O  SGN B   4     -18.762  49.671  18.2960  0.00  0.00     0.000 OA
ATOM     70   O  SGN B   4     -17.993  48.194  16.6120  0.00  0.00     0.000 OA
ATOM     71   O  SGN B   4     -16.594  49.991  17.3540  0.00  0.00     0.000 OA
ENDBRANCH 59 68
BRANCH 62 72
ATOM     72   C  SGN B   4     -23.370  53.172  15.5330  0.00  0.00     0.000 C
ATOM     73   O  SGN B   4     -24.190  52.087  15.2140  0.00  0.00     0.000 O
ATOM     74  @S  SGN B   4     -25.579  51.761  15.7900  0.00  0.00     0.000 S
ATOM     75   O  SGN B   4     -26.419  52.869  15.5200  0.00  0.00     0.000 OA
ATOM     76   O  SGN B   4     -25.986  50.585  15.0810  0.00  0.00     0.000 OA
ATOM     77   O  SGN B   4     -25.387  51.584  17.1900  0.00  0.00     0.000 OA
ENDBRANCH 62 72
BRANCH 58 78
ATOM     78  O4  IDS B   5     -19.276  52.922  16.3400  0.00  0.00     0.000 O
BRANCH 78 82
ATOM     79  C1  IDS B   5     -16.862  55.389  16.0520  0.00  0.00     0.000 C
ATOM     80  C2  IDS B   5     -16.476  54.046  16.5930  0.00  0.00     0.000 C
ATOM     81  C3  IDS B   5     -17.389  53.545  17.7090  0.00  0.00     0.000 C
ATOM     82  C4  IDS B   5     -18.857  53.753  17.4010  0.00  0.00     0.000 C
ATOM     83  C5  IDS B   5     -19.034  55.181  16.9920  0.00  0.00     0.000 C
ATOM     84  O5  IDS B   5     -18.260  55.441  15.8360  0.00  0.00     0.000 O
ATOM     85   O  IDS B   5     -17.089  54.278  18.8710  0.00  0.00     0.000 O
ATOM     87  HD  IDS B   5     -17.858  54.164  18.4900  0.00  0.00     0.000 HD
BRANCH 80 87
ATOM     87   O  IDS B   5     -16.555  53.132  15.5710  0.00  0.00     0.000 O
ATOM     88  @S  IDS B   5     -15.390  52.420  14.8790  0.00  0.00     0.000 S
ATOM     89   O  IDS B   5     -14.641  51.832  15.9310  0.00  0.00     0.000 OA
ATOM     90   O  IDS B   5     -15.990  51.483  13.9960  0.00  0.00     0.000 OA
ATOM     91   O  IDS B   5     -14.672  53.428  14.1810  0.00  0.00     0.000 OA
ENDBRANCH 80 87
BRANCH 83 92
ATOM     92 @CA  IDS B   5     -20.491  55.596  16.8290  0.00  0.00     0.000 C
ATOM     93   O  IDS B   5     -21.277  55.539  17.7780  0.00  0.00     0.000 OA
ATOM     94   O  IDS B   5     -20.913  55.995  15.7370  0.00  0.00     0.000 OA
ENDBRANCH 83 92
BRANCH 79 95
ATOM     95  O4  SGN B   6     -16.427  56.381  16.9220  0.00  0.00     0.000 O
BRANCH 95 99
ATOM     96  C1  SGN B   6     -15.358  60.341  16.3020  0.00  0.00     0.000 C
ATOM     97  C2  SGN B   6     -16.744  60.109  16.8940  0.00  0.00     0.000 C
ATOM     98  C3  SGN B   6     -16.716  58.723  17.5380  0.00  0.00     0.000 C
ATOM     99  C4  SGN B   6     -16.491  57.693  16.3940  0.00  0.00     0.000 C
ATOM    100  C5  SGN B   6     -15.121  58.043  15.7450  0.00  0.00     0.000 C
ATOM    101  O5  SGN B   6     -15.091  59.392  15.2890  0.00  0.00     0.000 O
BRANCH 97 104
ATOM    102   N  SGN B   6     -17.607  61.141  16.3110  0.00  0.00     0.000 N
ATOM    104  HD  SGN B   6     -17.168  61.884  16.2430  0.00  0.00     0.000 HD
ATOM    104 @NS  SGN B   6     -17.984  62.452  17.2550  0.00  0.00     0.000 S
ATOM    105   O  SGN B   6     -17.302  62.292  18.5210  0.00  0.00     0.000 OA
ATOM    106   O  SGN B   6     -17.537  63.623  16.5380  0.00  0.00     0.000 OA
ATOM    107   O  SGN B   6     -19.420  62.422  17.4240  0.00  0.00     0.000 OA
ENDBRANCH 97 104
BRANCH 100 108
ATOM    108   C  SGN B   6     -14.706  57.187  14.5540  0.00  0.00     0.000 C
ATOM    109   O  SGN B   6     -15.210  57.758  13.3720  0.00  0.00     0.000 O
ATOM    110  @S  SGN B   6     -15.016  57.187  11.9200  0.00  0.00     0.000 S
ATOM    111   O  SGN B   6     -15.157  55.755  12.0350  0.00  0.00     0.000 OA
ATOM    112   O  SGN B   6     -16.065  57.777  11.1040  0.00  0.00     0.000 OA
ATOM    113   O  SGN B   6     -13.688  57.588  11.5160  0.00  0.00     0.000 OA
ENDBRANCH 100 108
ENDBRANCH 95 99
ENDBRANCH 79 95
ENDBRANCH 78 82
ENDBRANCH 58 78
ENDBRANCH 57 61
ENDBRANCH 41 57
ENDBRANCH 40 44
ENDBRANCH 20 40
ENDBRANCH 19 23
ENDBRANCH 1 19
TORSDOF 22
ENDMDL
MODEL 59
REMARK VINA RESULT:       2.9      3.102      9.399
ROOT
ATOM      1  C1  IDS B   1     -26.502  55.698  11.4480  0.00  0.00     0.000 C
ATOM      2  C2  IDS B   1     -25.845  56.855  12.1540  0.00  0.00     0.000 C
ATOM      3  C3  IDS B   1     -24.855  57.693  11.3110  0.00  0.00     0.000 C
ATOM      4  C4  IDS B   1     -25.179  57.693   9.7700  0.00  0.00     0.000 C
ATOM      5  C5  IDS B   1     -25.901  56.403   9.3120  0.00  0.00     0.000 C
ATOM      6  O5  IDS B   1     -26.965  56.113  10.1790  0.00  0.00     0.000 O
ATOM      7   O  IDS B   1     -23.550  57.181  11.5590  0.00  0.00     0.000 O
ATOM      9  HD  IDS B   1     -23.563  57.579  10.7900  0.00  0.00     0.000 HD
ATOM      9   O  IDS B   1     -26.033  58.785   9.5110  0.00  0.00     0.000 O
ATOM     11  HD  IDS B   1     -26.046  59.183   8.7420  0.00  0.00     0.000 HD
ENDROOT
BRANCH 2 11
ATOM     11   O  IDS B   1     -26.814  57.734  12.6100  0.00  0.00     0.000 O
ATOM     12  @S  IDS B   1     -26.830  58.360  14.0180  0.00  0.00     0.000 S
ATOM     13   O  IDS B   1     -26.113  57.400  14.8330  0.00  0.00     0.000 OA
ATOM     14   O  IDS B   1     -26.137  59.632  13.9160  0.00  0.00     0.000 OA
ATOM     15   O  IDS B   1     -28.228  58.507  14.3700  0.00  0.00     0.000 OA
ENDBRANCH 2 11
BRANCH 5 16
ATOM     16 @CA  IDS B   1     -26.391  56.372   7.8670  0.00  0.00     0.000 C
ATOM     17   O  IDS B   1     -26.173  57.301   7.0930  0.00  0.00     0.000 OA
ATOM     18   O  IDS B   1     -27.010  55.401   7.4400  0.00  0.00     0.000 OA
ENDBRANCH 5 16
BRANCH 1 19
ATOM     19  O4  SGN B   2     -25.549  54.663  11.3240  0.00  0.00     0.000 O
BRANCH 19 23
ATOM     20  C1  SGN B   2     -25.168  50.982  13.0720  0.00  0.00     0.000 C
ATOM     21  C2  SGN B   2     -26.447  51.305  12.3320  0.00  0.00     0.000 C
ATOM     22  C3  SGN B   2     -26.180  52.366  11.3250  0.00  0.00     0.000 C
ATOM     23  C4  SGN B   2     -25.768  53.570  12.1400  0.00  0.00     0.000 C
ATOM     24  C5  SGN B   2     -24.467  53.194  12.7620  0.00  0.00     0.000 C
ATOM     25  O5  SGN B   2     -24.670  52.171  13.6680  0.00  0.00     0.000 O
ATOM     26   O  SGN B   2     -27.340  52.634  10.6190  0.00  0.00     0.000 O
ATOM     28  HD  SGN B   2     -28.070  52.961  10.2860  0.00  0.00     0.000 HD
BRANCH 21 30
ATOM     28   N  SGN B   2     -27.406  50.394  11.7780  0.00  0.00     0.000 N
ATOM     30  HD  SGN B   2     -28.129  50.815  12.0010  0.00  0.00     0.000 HD
ATOM     30 @NS  SGN B   2     -27.858  49.144  12.7120  0.00  0.00     0.000 S
ATOM     31   O  SGN B   2     -27.293  49.300  14.0100  0.00  0.00     0.000 OA
ATOM     32   O  SGN B   2     -29.259  49.246  12.7450  0.00  0.00     0.000 OA
ATOM     33   O  SGN B   2     -27.367  47.979  12.0780  0.00  0.00     0.000 OA
ENDBRANCH 21 30
BRANCH 24 34
ATOM     34   C  SGN B   2     -23.774  54.283  13.4940  0.00  0.00     0.000 C
ATOM     35   O  SGN B   2     -23.407  53.787  14.7310  0.00  0.00     0.000 O
ATOM     36  @S  SGN B   2     -22.488  54.528  15.6960  0.00  0.00     0.000 S
ATOM     37   O  SGN B   2     -23.390  55.300  16.5260  0.00  0.00     0.000 OA
ATOM     38   O  SGN B   2     -21.750  53.521  16.4230  0.00  0.00     0.000 OA
ATOM     39   O  SGN B   2     -21.624  55.341  14.8500  0.00  0.00     0.000 OA
ENDBRANCH 24 34
BRANCH 20 40
ATOM     40  O4  IDS B   3     -24.231  50.420  12.2050  0.00  0.00     0.000 O
BRANCH 40 44
ATOM     41  C1  IDS B   3     -21.588  48.133  11.9000  0.00  0.00     0.000 C
ATOM     42  C2  IDS B   3     -22.462  48.146  13.1530  0.00  0.00     0.000 C
ATOM     43  C3  IDS B   3     -22.726  49.534  13.7680  0.00  0.00     0.000 C
ATOM     44  C4  IDS B   3     -22.938  50.575  12.6860  0.00  0.00     0.000 C
ATOM     45  C5  IDS B   3     -21.927  50.429  11.5380  0.00  0.00     0.000 C
ATOM     46  O5  IDS B   3     -21.989  49.158  11.0030  0.00  0.00     0.000 O
ATOM     47   O  IDS B   3     -21.611  49.922  14.5430  0.00  0.00     0.000 O
ATOM     49  HD  IDS B   3     -22.444  49.911  14.3050  0.00  0.00     0.000 HD
BRANCH 42 49
ATOM     49   O  IDS B   3     -23.707  47.594  12.8320  0.00  0.00     0.000 O
ATOM     50   O  IDS B   3     -23.154  45.583  13.9250  0.00  0.00     0.000 OA
ATOM     51   O  IDS B   3     -25.357  46.427  14.1120  0.00  0.00     0.000 OA
ATOM     52   O  IDS B   3     -24.571  45.595  12.0480  0.00  0.00     0.000 OA
ATOM     53  @S  IDS B   3     -24.229  46.220  13.2590  0.00  0.00     0.000 S
ENDBRANCH 42 49
BRANCH 45 54
ATOM     54 @CA  IDS B   3     -22.051  51.464  10.4220  0.00  0.00     0.000 C
ATOM     55   O  IDS B   3     -21.848  52.632  10.6190  0.00  0.00     0.000 OA
ATOM     56   O  IDS B   3     -22.332  51.146   9.3150  0.00  0.00     0.000 OA
ENDBRANCH 45 54
BRANCH 41 57
ATOM     57  O4  SGN B   4     -20.253  48.261  12.2630  0.00  0.00     0.000 O
BRANCH 57 61
ATOM     58  C1  SGN B   4     -16.577  46.571  11.4670  0.00  0.00     0.000 C
ATOM     59  C2  SGN B   4     -17.336  47.091  10.2580  0.00  0.00     0.000 C
ATOM     60  C3  SGN B   4     -18.459  48.019  10.7120  0.00  0.00     0.000 C
ATOM     61  C4  SGN B   4     -19.383  47.319  11.7150  0.00  0.00     0.000 C
ATOM     62  C5  SGN B   4     -18.515  46.757  12.8370  0.00  0.00     0.000 C
ATOM     63  O5  SGN B   4     -17.496  45.918  12.3280  0.00  0.00     0.000 O
ATOM     64   O  SGN B   4     -19.223  48.395   9.5840  0.00  0.00     0.000 O
ATOM     66  HD  SGN B   4     -20.061  48.179   9.5980  0.00  0.00     0.000 HD
BRANCH 59 68
ATOM     66   N  SGN B   4     -16.823  46.515   9.0320  0.00  0.00     0.000 N
ATOM     68  HD  SGN B   4     -16.947  46.265   9.8520  0.00  0.00     0.000 HD
ATOM     68 @NS  SGN B   4     -15.340  46.944   8.4810  0.00  0.00     0.000 S
ATOM     69   O  SGN B   4     -15.152  48.342   8.7380  0.00  0.00     0.000 OA
ATOM     70   O  SGN B   4     -14.397  46.148   9.2120  0.00  0.00     0.000 OA
ATOM     71   O  SGN B   4     -15.379  46.640   7.0830  0.00  0.00     0.000 OA
ENDBRANCH 59 68
BRANCH 62 72
ATOM     72   C  SGN B   4     -19.306  45.926  13.8360  0.00  0.00     0.000 C
ATOM     73   O  SGN B   4     -18.977  46.439  15.0930  0.00  0.00     0.000 O
ATOM     74  @S  SGN B   4     -19.871  46.495  16.3440  0.00  0.00     0.000 S
ATOM     75   O  SGN B   4     -20.258  45.167  16.6470  0.00  0.00     0.000 OA
ATOM     76   O  SGN B   4     -19.027  47.058  17.3540  0.00  0.00     0.000 OA
ATOM     77   O  SGN B   4     -20.994  47.293  15.9840  0.00  0.00     0.000 OA
ENDBRANCH 62 72
BRANCH 58 78
ATOM     78  O4  IDS B   5     -15.901  47.632  12.1110  0.00  0.00     0.000 O
BRANCH 78 82
ATOM     79  C1  IDS B   5     -13.769  49.898  13.6340  0.00  0.00     0.000 C
ATOM     80  C2  IDS B   5     -13.622  49.625  12.1680  0.00  0.00     0.000 C
ATOM     81  C3  IDS B   5     -13.559  48.140  11.8210  0.00  0.00     0.000 C
ATOM     82  C4  IDS B   5     -14.599  47.322  12.5600  0.00  0.00     0.000 C
ATOM     83  C5  IDS B   5     -14.495  47.667  14.0110  0.00  0.00     0.000 C
ATOM     84  O5  IDS B   5     -14.756  49.047  14.1890  0.00  0.00     0.000 O
ATOM     85   O  IDS B   5     -12.291  47.663  12.2020  0.00  0.00     0.000 O
ATOM     87  HD  IDS B   5     -13.071  47.354  12.4190  0.00  0.00     0.000 HD
BRANCH 80 87
ATOM     87   O  IDS B   5     -14.718  50.141  11.5220  0.00  0.00     0.000 O
ATOM     88  @S  IDS B   5     -14.776  51.418  10.6810  0.00  0.00     0.000 S
ATOM     89   O  IDS B   5     -13.735  51.278   9.7280  0.00  0.00     0.000 OA
ATOM     90   O  IDS B   5     -16.081  51.443  10.1220  0.00  0.00     0.000 OA
ATOM     91   O  IDS B   5     -14.562  52.494  11.5860  0.00  0.00     0.000 OA
ENDBRANCH 80 87
BRANCH 83 92
ATOM     92 @CA  IDS B   5     -15.352  46.787  14.9140  0.00  0.00     0.000 C
ATOM     93   O  IDS B   5     -15.995  47.272  15.8480  0.00  0.00     0.000 OA
ATOM     94   O  IDS B   5     -15.413  45.566  14.7280  0.00  0.00     0.000 OA
ENDBRANCH 83 92
BRANCH 79 95
ATOM     95  O4  SGN B   6     -12.538  49.753  14.2590  0.00  0.00     0.000 O
BRANCH 95 99
ATOM     96  C1  SGN B   6     -10.884  50.866  17.8970  0.00  0.00     0.000 C
ATOM     97  C2  SGN B   6     -12.207  50.112  17.9690  0.00  0.00     0.000 C
ATOM     98  C3  SGN B   6     -12.342  49.342  16.6550  0.00  0.00     0.000 C
ATOM     99  C4  SGN B   6     -12.437  50.397  15.5160  0.00  0.00     0.000 C
ATOM    100  C5  SGN B   6     -11.116  51.216  15.5570  0.00  0.00     0.000 C
ATOM    101  O5  SGN B   6     -10.908  51.803  16.8390  0.00  0.00     0.000 O
BRANCH 97 104
ATOM    102   N  SGN B   6     -13.047  50.629  19.0540  0.00  0.00     0.000 N
ATOM    104  HD  SGN B   6     -12.545  50.927  19.6940  0.00  0.00     0.000 HD
ATOM    104 @NS  SGN B   6     -12.972  49.855  20.5190  0.00  0.00     0.000 S
ATOM    105   O  SGN B   6     -12.002  48.788  20.4030  0.00  0.00     0.000 OA
ATOM    106   O  SGN B   6     -12.579  50.846  21.4940  0.00  0.00     0.000 OA
ATOM    107   O  SGN B   6     -14.298  49.335  20.7640  0.00  0.00     0.000 OA
ENDBRANCH 97 104
BRANCH 100 108
ATOM    108   C  SGN B   6     -11.002  52.355  14.5510  0.00  0.00     0.000 C
ATOM    109   O  SGN B   6     -11.886  53.387  14.9110  0.00  0.00     0.000 O
ATOM    110  @S  SGN B   6     -12.085  54.739  14.1360  0.00  0.00     0.000 S
ATOM    111   O  SGN B   6     -12.055  54.401  12.7330  0.00  0.00     0.000 OA
ATOM    112   O  SGN B   6     -13.380  55.261  14.5450  0.00  0.00     0.000 OA
ATOM    113   O  SGN B   6     -10.981  55.584  14.5310  0.00  0.00     0.000 OA
ENDBRANCH 100 108
ENDBRANCH 95 99
ENDBRANCH 79 95
ENDBRANCH 78 82
ENDBRANCH 58 78
ENDBRANCH 57 61
ENDBRANCH 41 57
ENDBRANCH 40 44
ENDBRANCH 20 40
ENDBRANCH 19 23
ENDBRANCH 1 19
TORSDOF 22
ENDMDL
MODEL 60
REMARK VINA RESULT:       2.9      4.057     10.244
ROOT
ATOM      1  C1  IDS B   1     -26.619  52.585  11.3890  0.00  0.00     0.000 C
ATOM      2  C2  IDS B   1     -26.610  54.079  11.1980  0.00  0.00     0.000 C
ATOM      3  C3  IDS B   1     -26.506  54.577   9.7360  0.00  0.00     0.000 C
ATOM      4  C4  IDS B   1     -27.106  53.574   8.6820  0.00  0.00     0.000 C
ATOM      5  C5  IDS B   1     -27.032  52.101   9.1500  0.00  0.00     0.000 C
ATOM      6  O5  IDS B   1     -27.506  51.989  10.4650  0.00  0.00     0.000 O
ATOM      7   O  IDS B   1     -25.129  54.831   9.4750  0.00  0.00     0.000 O
ATOM      9  HD  IDS B   1     -25.541  54.676   8.7290  0.00  0.00     0.000 HD
ATOM      9   O  IDS B   1     -28.464  53.905   8.5000  0.00  0.00     0.000 O
ATOM     11  HD  IDS B   1     -28.877  53.750   7.7540  0.00  0.00     0.000 HD
ENDROOT
BRANCH 2 11
ATOM     11   O  IDS B   1     -27.776  54.622  11.7140  0.00  0.00     0.000 O
ATOM     12  @S  IDS B   1     -27.840  55.913  12.5530  0.00  0.00     0.000 S
ATOM     13   O  IDS B   1     -26.529  55.993  13.1660  0.00  0.00     0.000 OA
ATOM     14   O  IDS B   1     -28.088  57.001  11.6240  0.00  0.00     0.000 OA
ATOM     15   O  IDS B   1     -28.924  55.719  13.4960  0.00  0.00     0.000 OA
ENDBRANCH 2 11
BRANCH 5 16
ATOM     16 @CA  IDS B   1     -27.724  51.068   8.2640  0.00  0.00     0.000 C
ATOM     17   O  IDS B   1     -28.510  51.401   7.3810  0.00  0.00     0.000 OA
ATOM     18   O  IDS B   1     -27.496  49.870   8.4090  0.00  0.00     0.000 OA
ENDBRANCH 5 16
BRANCH 1 19
ATOM     19  O4  SGN B   2     -25.301  52.113  11.1990  0.00  0.00     0.000 O
BRANCH 19 23
ATOM     20  C1  SGN B   2     -23.076  49.200  13.0210  0.00  0.00     0.000 C
ATOM     21  C2  SGN B   2     -24.362  48.806  12.3300  0.00  0.00     0.000 C
ATOM     22  C3  SGN B   2     -24.690  49.811  11.2860  0.00  0.00     0.000 C
ATOM     23  C4  SGN B   2     -24.919  51.094  12.0510  0.00  0.00     0.000 C
ATOM     24  C5  SGN B   2     -23.592  51.449  12.6260  0.00  0.00     0.000 C
ATOM     25  O5  SGN B   2     -23.230  50.503  13.5650  0.00  0.00     0.000 O
ATOM     26   O  SGN B   2     -25.844  49.430  10.6240  0.00  0.00     0.000 O
ATOM     28  HD  SGN B   2     -26.647  49.332  10.3150  0.00  0.00     0.000 HD
BRANCH 21 30
ATOM     28   N  SGN B   2     -24.170  47.481  11.8160  0.00  0.00     0.000 N
ATOM     30  HD  SGN B   2     -24.946  47.370  11.4480  0.00  0.00     0.000 HD
ATOM     30 @NS  SGN B   2     -24.484  46.247  12.8250  0.00  0.00     0.000 S
ATOM     31   O  SGN B   2     -25.056  46.757  14.0250  0.00  0.00     0.000 OA
ATOM     32   O  SGN B   2     -25.403  45.461  12.1090  0.00  0.00     0.000 OA
ATOM     33   O  SGN B   2     -23.243  45.617  13.0780  0.00  0.00     0.000 OA
ENDBRANCH 21 30
BRANCH 24 34
ATOM     34   C  SGN B   2     -23.524  52.770  13.3000  0.00  0.00     0.000 C
ATOM     35   O  SGN B   2     -23.232  52.544  14.6330  0.00  0.00     0.000 O
ATOM     36  @S  SGN B   2     -22.868  53.653  15.6140  0.00  0.00     0.000 S
ATOM     37   O  SGN B   2     -24.137  54.046  16.1940  0.00  0.00     0.000 OA
ATOM     38   O  SGN B   2     -21.949  53.078  16.5680  0.00  0.00     0.000 OA
ATOM     39   O  SGN B   2     -22.244  54.689  14.8030  0.00  0.00     0.000 OA
ENDBRANCH 24 34
BRANCH 20 40
ATOM     40  O4  IDS B   3     -22.005  49.147  12.1300  0.00  0.00     0.000 O
BRANCH 40 44
ATOM     41  C1  IDS B   3     -18.588  48.724  11.4580  0.00  0.00     0.000 C
ATOM     42  C2  IDS B   3     -19.191  48.213  12.7650  0.00  0.00     0.000 C
ATOM     43  C3  IDS B   3     -20.110  49.203  13.5070  0.00  0.00     0.000 C
ATOM     44  C4  IDS B   3     -20.970  49.981  12.5310  0.00  0.00     0.000 C
ATOM     45  C5  IDS B   3     -20.170  50.455  11.3080  0.00  0.00     0.000 C
ATOM     46  O5  IDS B   3     -19.576  49.379  10.6760  0.00  0.00     0.000 O
ATOM     47   O  IDS B   3     -19.320  50.122  14.2320  0.00  0.00     0.000 O
ATOM     49  HD  IDS B   3     -20.028  49.657  14.0530  0.00  0.00     0.000 HD
BRANCH 42 49
ATOM     49   O  IDS B   3     -19.952  47.072  12.4880  0.00  0.00     0.000 O
ATOM     50   O  IDS B   3     -18.018  45.727  12.4640  0.00  0.00     0.000 OA
ATOM     51   O  IDS B   3     -20.004  44.873  13.4290  0.00  0.00     0.000 OA
ATOM     52   O  IDS B   3     -19.866  45.222  11.0990  0.00  0.00     0.000 OA
ATOM     53  @S  IDS B   3     -19.429  45.638  12.3680  0.00  0.00     0.000 S
ENDBRANCH 42 49
BRANCH 45 54
ATOM     54 @CA  IDS B   3     -20.957  51.278  10.2900  0.00  0.00     0.000 C
ATOM     55   O  IDS B   3     -21.141  52.456  10.4390  0.00  0.00     0.000 OA
ATOM     56   O  IDS B   3     -21.396  50.784   9.3050  0.00  0.00     0.000 OA
ENDBRANCH 45 54
BRANCH 41 57
ATOM     57  O4  SGN B   4     -17.515  49.562  11.7360  0.00  0.00     0.000 O
BRANCH 57 61
ATOM     58  C1  SGN B   4     -13.542  48.990  12.6770  0.00  0.00     0.000 C
ATOM     59  C2  SGN B   4     -14.238  47.808  12.0230  0.00  0.00     0.000 C
ATOM     60  C3  SGN B   4     -15.545  48.268  11.3830  0.00  0.00     0.000 C
ATOM     61  C4  SGN B   4     -16.443  48.972  12.4060  0.00  0.00     0.000 C
ATOM     62  C5  SGN B   4     -15.623  50.077  13.0660  0.00  0.00     0.000 C
ATOM     63  O5  SGN B   4     -14.427  49.566  13.6230  0.00  0.00     0.000 O
ATOM     64   O  SGN B   4     -16.231  47.136  10.8870  0.00  0.00     0.000 O
ATOM     66  HD  SGN B   4     -17.017  46.987  11.2180  0.00  0.00     0.000 HD
BRANCH 59 68
ATOM     66   N  SGN B   4     -13.402  46.681  12.3810  0.00  0.00     0.000 N
ATOM     68  HD  SGN B   4     -13.558  47.480  12.6780  0.00  0.00     0.000 HD
ATOM     68 @NS  SGN B   4     -12.061  46.342  11.5000  0.00  0.00     0.000 S
ATOM     69   O  SGN B   4     -12.353  46.595  10.1200  0.00  0.00     0.000 OA
ATOM     70   O  SGN B   4     -11.033  47.217  11.9840  0.00  0.00     0.000 OA
ATOM     71   O  SGN B   4     -11.802  44.959  11.7660  0.00  0.00     0.000 OA
ENDBRANCH 59 68
BRANCH 62 72
ATOM     72   C  SGN B   4     -16.368  50.772  14.1960  0.00  0.00     0.000 C
ATOM     73   O  SGN B   4     -15.557  50.628  15.3240  0.00  0.00     0.000 O
ATOM     74  @S  SGN B   4     -15.420  51.600  16.5080  0.00  0.00     0.000 S
ATOM     75   O  SGN B   4     -16.707  51.761  17.0750  0.00  0.00     0.000 OA
ATOM     76   O  SGN B   4     -14.512  50.942  17.3990  0.00  0.00     0.000 OA
ATOM     77   O  SGN B   4     -14.940  52.821  15.9540  0.00  0.00     0.000 OA
ENDBRANCH 62 72
BRANCH 58 78
ATOM     78  O4  IDS B   5     -13.129  49.917  11.6940  0.00  0.00     0.000 O
BRANCH 78 82
ATOM     79  C1  IDS B   5     -11.640  52.228   9.5860  0.00  0.00     0.000 C
ATOM     80  C2  IDS B   5     -11.221  50.791   9.5120  0.00  0.00     0.000 C
ATOM     81  C3  IDS B   5     -10.877  50.178  10.8660  0.00  0.00     0.000 C
ATOM     82  C4  IDS B   5     -11.884  50.533  11.9410  0.00  0.00     0.000 C
ATOM     83  C5  IDS B   5     -12.067  52.017  11.9140  0.00  0.00     0.000 C
ATOM     84  O5  IDS B   5     -12.560  52.410  10.6470  0.00  0.00     0.000 O
ATOM     85   O  IDS B   5      -9.629  50.689  11.2650  0.00  0.00     0.000 O
ATOM     87  HD  IDS B   5     -10.376  50.691  11.7020  0.00  0.00     0.000 HD
BRANCH 80 87
ATOM     87   O  IDS B   5     -12.266  50.065   8.9970  0.00  0.00     0.000 O
ATOM     88  @S  IDS B   5     -12.280  49.269   7.6890  0.00  0.00     0.000 S
ATOM     89   O  IDS B   5     -11.152  48.413   7.7680  0.00  0.00     0.000 OA
ATOM     90   O  IDS B   5     -13.528  48.591   7.6730  0.00  0.00     0.000 OA
ATOM     91   O  IDS B   5     -12.181  50.228   6.6450  0.00  0.00     0.000 OA
ENDBRANCH 80 87
BRANCH 83 92
ATOM     92 @CA  IDS B   5     -12.912  52.552  13.0640  0.00  0.00     0.000 C
ATOM     93   O  IDS B   5     -13.941  53.196  12.8500  0.00  0.00     0.000 OA
ATOM     94   O  IDS B   5     -12.575  52.354  14.2380  0.00  0.00     0.000 OA
ENDBRANCH 83 92
BRANCH 79 95
ATOM     95  O4  SGN B   6     -10.516  53.032   9.7210  0.00  0.00     0.000 O
BRANCH 95 99
ATOM     96  C1  SGN B   6      -9.726  57.105   9.7060  0.00  0.00     0.000 C
ATOM     97  C2  SGN B   6     -10.665  56.612  10.8000  0.00  0.00     0.000 C
ATOM     98  C3  SGN B   6     -10.386  55.120  10.9770  0.00  0.00     0.000 C
ATOM     99  C4  SGN B   6     -10.776  54.422   9.6420  0.00  0.00     0.000 C
ATOM    100  C5  SGN B   6      -9.872  55.040   8.5370  0.00  0.00     0.000 C
ATOM    101  O5  SGN B   6     -10.014  56.457   8.4820  0.00  0.00     0.000 O
BRANCH 97 104
ATOM    102   N  SGN B   6     -11.682  57.650  10.9980  0.00  0.00     0.000 N
ATOM    104  HD  SGN B   6     -11.322  58.432  10.9010  0.00  0.00     0.000 HD
ATOM    104 @NS  SGN B   6     -11.491  58.676  12.2890  0.00  0.00     0.000 S
ATOM    105   O  SGN B   6     -10.261  58.315  12.9590  0.00  0.00     0.000 OA
ATOM    106   O  SGN B   6     -11.447  60.016  11.7520  0.00  0.00     0.000 OA
ATOM    107   O  SGN B   6     -12.637  58.460  13.1430  0.00  0.00     0.000 OA
ENDBRANCH 97 104
BRANCH 100 108
ATOM    108   C  SGN B   6     -10.113  54.539   7.1170  0.00  0.00     0.000 C
ATOM    109   O  SGN B   6     -11.496  54.473   6.8740  0.00  0.00     0.000 O
ATOM    110  @S  SGN B   6     -12.172  54.001   5.5360  0.00  0.00     0.000 S
ATOM    111   O  SGN B   6     -11.400  52.871   5.0780  0.00  0.00     0.000 OA
ATOM    112   O  SGN B   6     -13.537  53.631   5.8740  0.00  0.00     0.000 OA
ATOM    113   O  SGN B   6     -12.095  55.131   4.6380  0.00  0.00     0.000 OA
ENDBRANCH 100 108
ENDBRANCH 95 99
ENDBRANCH 79 95
ENDBRANCH 78 82
ENDBRANCH 58 78
ENDBRANCH 57 61
ENDBRANCH 41 57
ENDBRANCH 40 44
ENDBRANCH 20 40
ENDBRANCH 19 23
ENDBRANCH 1 19
TORSDOF 22
ENDMDL
MODEL 61
REMARK VINA RESULT:       2.9      3.032      8.920
ROOT
ATOM      1  C1  IDS B   1     -21.358  48.154  10.7160  0.00  0.00     0.000 C
ATOM      2  C2  IDS B   1     -22.409  47.530  11.5960  0.00  0.00     0.000 C
ATOM      3  C3  IDS B   1     -23.299  48.513  12.3940  0.00  0.00     0.000 C
ATOM      4  C4  IDS B   1     -23.475  49.914  11.6990  0.00  0.00     0.000 C
ATOM      5  C5  IDS B   1     -22.267  50.296  10.8110  0.00  0.00     0.000 C
ATOM      6  O5  IDS B   1     -21.921  49.221   9.9800  0.00  0.00     0.000 O
ATOM      7   O  IDS B   1     -22.720  48.652  13.6870  0.00  0.00     0.000 O
ATOM      9  HD  IDS B   1     -23.198  49.351  13.5080  0.00  0.00     0.000 HD
ATOM      9   O  IDS B   1     -24.617  49.844  10.8740  0.00  0.00     0.000 O
ATOM     11  HD  IDS B   1     -25.094  50.544  10.6950  0.00  0.00     0.000 HD
ENDROOT
BRANCH 2 11
ATOM     11   O  IDS B   1     -23.267  46.763  10.8240  0.00  0.00     0.000 O
ATOM     12  @S  IDS B   1     -23.111  45.247  10.5920  0.00  0.00     0.000 S
ATOM     13   O  IDS B   1     -21.690  45.016  10.7560  0.00  0.00     0.000 OA
ATOM     14   O  IDS B   1     -23.905  44.586  11.6120  0.00  0.00     0.000 OA
ATOM     15   O  IDS B   1     -23.600  45.000   9.2500  0.00  0.00     0.000 OA
ENDBRANCH 2 11
BRANCH 5 16
ATOM     16 @CA  IDS B   1     -22.407  51.567   9.9770  0.00  0.00     0.000 C
ATOM     17   O  IDS B   1     -21.500  51.964   9.2500  0.00  0.00     0.000 OA
ATOM     18   O  IDS B   1     -23.448  52.219  10.0060  0.00  0.00     0.000 OA
ENDBRANCH 5 16
BRANCH 1 19
ATOM     19  O4  SGN B   2     -20.311  48.613  11.5460  0.00  0.00     0.000 O
BRANCH 19 23
ATOM     20  C1  SGN B   2     -16.321  47.719  11.7380  0.00  0.00     0.000 C
ATOM     21  C2  SGN B   2     -16.936  48.009  10.3870  0.00  0.00     0.000 C
ATOM     22  C3  SGN B   2     -18.151  48.846  10.5660  0.00  0.00     0.000 C
ATOM     23  C4  SGN B   2     -19.099  47.976  11.3590  0.00  0.00     0.000 C
ATOM     24  C5  SGN B   2     -18.456  47.812  12.6930  0.00  0.00     0.000 C
ATOM     25  O5  SGN B   2     -17.292  47.081  12.5550  0.00  0.00     0.000 O
ATOM     26   O  SGN B   2     -18.692  49.146   9.3280  0.00  0.00     0.000 O
ATOM     28  HD  SGN B   2     -19.162  49.202   8.6030  0.00  0.00     0.000 HD
BRANCH 21 30
ATOM     28   N  SGN B   2     -16.057  47.057   9.7730  0.00  0.00     0.000 N
ATOM     30  HD  SGN B   2     -15.468  46.997  10.4050  0.00  0.00     0.000 HD
ATOM     30 @NS  SGN B   2     -14.914  47.645   8.7780  0.00  0.00     0.000 S
ATOM     31   O  SGN B   2     -14.927  49.068   8.8380  0.00  0.00     0.000 OA
ATOM     32   O  SGN B   2     -13.720  47.117   9.2980  0.00  0.00     0.000 OA
ATOM     33   O  SGN B   2     -15.244  47.186   7.4820  0.00  0.00     0.000 OA
ENDBRANCH 21 30
BRANCH 24 34
ATOM     34   C  SGN B   2     -19.280  47.118  13.7150  0.00  0.00     0.000 C
ATOM     35   O  SGN B   2     -18.666  45.910  13.9940  0.00  0.00     0.000 O
ATOM     36  @S  SGN B   2     -19.085  45.001  15.1440  0.00  0.00     0.000 S
ATOM     37   O  SGN B   2     -20.063  44.108  14.5550  0.00  0.00     0.000 OA
ATOM     38   O  SGN B   2     -17.889  44.331  15.6000  0.00  0.00     0.000 OA
ATOM     39   O  SGN B   2     -19.635  45.894  16.1550  0.00  0.00     0.000 OA
ENDBRANCH 24 34
BRANCH 20 40
ATOM     40  O4  IDS B   3     -15.857  48.895  12.3260  0.00  0.00     0.000 O
BRANCH 40 44
ATOM     41  C1  IDS B   3     -14.023  51.274  14.1380  0.00  0.00     0.000 C
ATOM     42  C2  IDS B   3     -13.533  50.791  12.7750  0.00  0.00     0.000 C
ATOM     43  C3  IDS B   3     -13.555  49.265  12.5610  0.00  0.00     0.000 C
ATOM     44  C4  IDS B   3     -14.792  48.648  13.1820  0.00  0.00     0.000 C
ATOM     45  C5  IDS B   3     -15.089  49.226  14.5740  0.00  0.00     0.000 C
ATOM     46  O5  IDS B   3     -15.218  50.600  14.5060  0.00  0.00     0.000 O
ATOM     47   O  IDS B   3     -12.418  48.690  13.1710  0.00  0.00     0.000 O
ATOM     49  HD  IDS B   3     -13.071  48.741  12.6040  0.00  0.00     0.000 HD
BRANCH 42 49
ATOM     49   O  IDS B   3     -14.342  51.358  11.7850  0.00  0.00     0.000 O
ATOM     50   O  IDS B   3     -12.767  53.066  11.4030  0.00  0.00     0.000 OA
ATOM     51   O  IDS B   3     -13.911  52.122   9.5590  0.00  0.00     0.000 OA
ATOM     52   O  IDS B   3     -15.070  53.454  11.1250  0.00  0.00     0.000 OA
ATOM     53  @S  IDS B   3     -14.000  52.569  10.9140  0.00  0.00     0.000 S
ENDBRANCH 42 49
BRANCH 45 54
ATOM     54 @CA  IDS B   3     -16.303  48.630  15.2840  0.00  0.00     0.000 C
ATOM     55   O  IDS B   3     -16.286  47.517  15.7340  0.00  0.00     0.000 OA
ATOM     56   O  IDS B   3     -17.298  49.258  15.4360  0.00  0.00     0.000 OA
ENDBRANCH 45 54
BRANCH 41 57
ATOM     57  O4  SGN B   4     -13.021  51.094  15.0840  0.00  0.00     0.000 O
BRANCH 57 61
ATOM     58  C1  SGN B   4     -15.015  53.219  18.0010  0.00  0.00     0.000 C
ATOM     59  C2  SGN B   4     -14.095  54.035  17.1080  0.00  0.00     0.000 C
ATOM     60  C3  SGN B   4     -13.737  53.231  15.8610  0.00  0.00     0.000 C
ATOM     61  C4  SGN B   4     -13.126  51.875  16.2340  0.00  0.00     0.000 C
ATOM     62  C5  SGN B   4     -14.083  51.181  17.2000  0.00  0.00     0.000 C
ATOM     63  O5  SGN B   4     -14.367  51.999  18.3190  0.00  0.00     0.000 O
ATOM     64   O  SGN B   4     -12.790  53.958  15.1070  0.00  0.00     0.000 O
ATOM     66  HD  SGN B   4     -12.026  53.573  14.9750  0.00  0.00     0.000 HD
BRANCH 59 68
ATOM     66   N  SGN B   4     -14.770  55.266  16.7520  0.00  0.00     0.000 N
ATOM     68  HD  SGN B   4     -14.007  54.888  16.5950  0.00  0.00     0.000 HD
ATOM     68 @NS  SGN B   4     -14.920  56.469  17.8570  0.00  0.00     0.000 S
ATOM     69   O  SGN B   4     -15.160  55.875  19.1390  0.00  0.00     0.000 OA
ATOM     70   O  SGN B   4     -13.676  57.184  17.8380  0.00  0.00     0.000 OA
ATOM     71   O  SGN B   4     -16.029  57.244  17.3890  0.00  0.00     0.000 OA
ENDBRANCH 59 68
BRANCH 62 72
ATOM     72   C  SGN B   4     -13.526  49.874  17.7450  0.00  0.00     0.000 C
ATOM     73   O  SGN B   4     -13.936  49.820  19.0790  0.00  0.00     0.000 O
ATOM     74  @S  SGN B   4     -14.261  48.565  19.9080  0.00  0.00     0.000 S
ATOM     75   O  SGN B   4     -13.105  47.748  19.9090  0.00  0.00     0.000 OA
ATOM     76   O  SGN B   4     -14.567  49.075  21.2110  0.00  0.00     0.000 OA
ATOM     77   O  SGN B   4     -15.346  47.929  19.2410  0.00  0.00     0.000 OA
ENDBRANCH 62 72
BRANCH 58 78
ATOM     78  O4  IDS B   5     -16.259  53.015  17.3620  0.00  0.00     0.000 O
BRANCH 78 82
ATOM     79  C1  IDS B   5     -19.528  52.956  16.2180  0.00  0.00     0.000 C
ATOM     80  C2  IDS B   5     -18.825  54.272  16.3600  0.00  0.00     0.000 C
ATOM     81  C3  IDS B   5     -18.152  54.468  17.7160  0.00  0.00     0.000 C
ATOM     82  C4  IDS B   5     -17.390  53.242  18.1740  0.00  0.00     0.000 C
ATOM     83  C5  IDS B   5     -18.310  52.069  18.0560  0.00  0.00     0.000 C
ATOM     84  O5  IDS B   5     -18.705  51.912  16.7060  0.00  0.00     0.000 O
ATOM     85   O  IDS B   5     -19.162  54.722  18.6640  0.00  0.00     0.000 O
ATOM     87  HD  IDS B   5     -18.538  54.121  18.6880  0.00  0.00     0.000 HD
BRANCH 80 87
ATOM     87   O  IDS B   5     -17.836  54.336  15.4100  0.00  0.00     0.000 O
ATOM     88  @S  IDS B   5     -17.759  55.299  14.2230  0.00  0.00     0.000 S
ATOM     89   O  IDS B   5     -17.904  56.592  14.7880  0.00  0.00     0.000 OA
ATOM     90   O  IDS B   5     -16.493  55.061  13.6250  0.00  0.00     0.000 OA
ATOM     91   O  IDS B   5     -18.832  54.944  13.3600  0.00  0.00     0.000 OA
ENDBRANCH 80 87
BRANCH 83 92
ATOM     92 @CA  IDS B   5     -17.750  50.786  18.6570  0.00  0.00     0.000 C
ATOM     93   O  IDS B   5     -18.034  49.684  18.1800  0.00  0.00     0.000 OA
ATOM     94   O  IDS B   5     -17.000  50.826  19.6400  0.00  0.00     0.000 OA
ENDBRANCH 83 92
BRANCH 79 95
ATOM     95  O4  SGN B   6     -20.751  53.011  16.8730  0.00  0.00     0.000 O
BRANCH 95 99
ATOM     96  C1  SGN B   6     -24.301  50.868  16.7420  0.00  0.00     0.000 C
ATOM     97  C2  SGN B   6     -23.027  50.040  16.8640  0.00  0.00     0.000 C
ATOM     98  C3  SGN B   6     -21.957  50.968  17.4410  0.00  0.00     0.000 C
ATOM     99  C4  SGN B   6     -21.716  52.092  16.3930  0.00  0.00     0.000 C
ATOM    100  C5  SGN B   6     -23.072  52.834  16.2160  0.00  0.00     0.000 C
ATOM    101  O5  SGN B   6     -24.109  51.935  15.8340  0.00  0.00     0.000 O
BRANCH 97 104
ATOM    102   N  SGN B   6     -24.052  49.019  16.6300  0.00  0.00     0.000 N
ATOM    104  HD  SGN B   6     -24.242  48.621  17.3760  0.00  0.00     0.000 HD
ATOM    104 @NS  SGN B   6     -23.632  47.435  16.8920  0.00  0.00     0.000 S
ATOM    105   O  SGN B   6     -22.262  47.415  17.3570  0.00  0.00     0.000 OA
ATOM    106   O  SGN B   6     -24.551  46.918  17.8790  0.00  0.00     0.000 OA
ATOM    107   O  SGN B   6     -23.762  46.771  15.6140  0.00  0.00     0.000 OA
ENDBRANCH 97 104
BRANCH 100 108
ATOM    108   C  SGN B   6     -23.091  53.959  15.1870  0.00  0.00     0.000 C
ATOM    109   O  SGN B   6     -24.373  54.536  15.1510  0.00  0.00     0.000 O
ATOM    110  @S  SGN B   6     -24.821  55.722  14.2230  0.00  0.00     0.000 S
ATOM    111   O  SGN B   6     -24.208  55.476  12.9400  0.00  0.00     0.000 OA
ATOM    112   O  SGN B   6     -26.273  55.665  14.1560  0.00  0.00     0.000 OA
ATOM    113   O  SGN B   6     -24.327  56.923  14.8570  0.00  0.00     0.000 OA
ENDBRANCH 100 108
ENDBRANCH 95 99
ENDBRANCH 79 95
ENDBRANCH 78 82
ENDBRANCH 58 78
ENDBRANCH 57 61
ENDBRANCH 41 57
ENDBRANCH 40 44
ENDBRANCH 20 40
ENDBRANCH 19 23
ENDBRANCH 1 19
TORSDOF 22
ENDMDL
MODEL 62
REMARK VINA RESULT:       2.9      2.780      8.778
ROOT
ATOM      1  C1  IDS B   1     -23.712  52.775  12.4230  0.00  0.00     0.000 C
ATOM      2  C2  IDS B   1     -23.559  53.659  13.6330  0.00  0.00     0.000 C
ATOM      3  C3  IDS B   1     -22.743  54.958  13.4280  0.00  0.00     0.000 C
ATOM      4  C4  IDS B   1     -22.793  55.511  11.9550  0.00  0.00     0.000 C
ATOM      5  C5  IDS B   1     -23.007  54.394  10.9050  0.00  0.00     0.000 C
ATOM      6  O5  IDS B   1     -24.061  53.558  11.2990  0.00  0.00     0.000 O
ATOM      7   O  IDS B   1     -21.404  54.682  13.8260  0.00  0.00     0.000 O
ATOM      9  HD  IDS B   1     -21.410  55.344  13.2670  0.00  0.00     0.000 HD
ATOM      9   O  IDS B   1     -23.882  56.403  11.8690  0.00  0.00     0.000 O
ATOM     11  HD  IDS B   1     -23.888  57.065  11.3100  0.00  0.00     0.000 HD
ENDROOT
BRANCH 2 11
ATOM     11   O  IDS B   1     -24.810  54.049  14.0860  0.00  0.00     0.000 O
ATOM     12  @S  IDS B   1     -25.079  54.685  15.4630  0.00  0.00     0.000 S
ATOM     13   O  IDS B   1     -24.000  54.186  16.2920  0.00  0.00     0.000 OA
ATOM     14   O  IDS B   1     -25.018  56.124  15.2770  0.00  0.00     0.000 OA
ATOM     15   O  IDS B   1     -26.394  54.224  15.8620  0.00  0.00     0.000 OA
ENDBRANCH 2 11
BRANCH 5 16
ATOM     16 @CA  IDS B   1     -23.220  54.846   9.4630  0.00  0.00     0.000 C
ATOM     17   O  IDS B   1     -24.075  55.677   9.1680  0.00  0.00     0.000 OA
ATOM     18   O  IDS B   1     -22.523  54.392   8.5590  0.00  0.00     0.000 OA
ENDBRANCH 5 16
BRANCH 1 19
ATOM     19  O4  SGN B   2     -22.484  52.110  12.2100  0.00  0.00     0.000 O
BRANCH 19 23
ATOM     20  C1  SGN B   2     -21.356  48.250  12.9750  0.00  0.00     0.000 C
ATOM     21  C2  SGN B   2     -21.882  48.594  11.5990  0.00  0.00     0.000 C
ATOM     22  C3  SGN B   2     -21.678  50.043  11.3400  0.00  0.00     0.000 C
ATOM     23  C4  SGN B   2     -22.529  50.738  12.3780  0.00  0.00     0.000 C
ATOM     24  C5  SGN B   2     -21.894  50.415  13.6860  0.00  0.00     0.000 C
ATOM     25  O5  SGN B   2     -22.018  49.062  13.9340  0.00  0.00     0.000 O
ATOM     26   O  SGN B   2     -22.121  50.351  10.0660  0.00  0.00     0.000 O
ATOM     28  HD  SGN B   2     -22.548  50.622   9.3620  0.00  0.00     0.000 HD
BRANCH 21 30
ATOM     28   N  SGN B   2     -21.309  47.797  10.5540  0.00  0.00     0.000 N
ATOM     30  HD  SGN B   2     -21.830  48.038   9.9050  0.00  0.00     0.000 HD
ATOM     30 @NS  SGN B   2     -21.853  46.272  10.4080  0.00  0.00     0.000 S
ATOM     31   O  SGN B   2     -22.947  46.078  11.2990  0.00  0.00     0.000 OA
ATOM     32   O  SGN B   2     -22.260  46.193   9.0660  0.00  0.00     0.000 OA
ATOM     33   O  SGN B   2     -20.766  45.431  10.7440  0.00  0.00     0.000 OA
ENDBRANCH 21 30
BRANCH 24 34
ATOM     34   C  SGN B   2     -22.462  51.120  14.8610  0.00  0.00     0.000 C
ATOM     35   O  SGN B   2     -23.317  50.241  15.5020  0.00  0.00     0.000 O
ATOM     36  @S  SGN B   2     -23.932  50.514  16.8700  0.00  0.00     0.000 S
ATOM     37   O  SGN B   2     -25.192  51.164  16.5700  0.00  0.00     0.000 OA
ATOM     38   O  SGN B   2     -24.081  49.234  17.5210  0.00  0.00     0.000 OA
ATOM     39   O  SGN B   2     -22.975  51.372  17.5540  0.00  0.00     0.000 OA
ENDBRANCH 24 34
BRANCH 20 40
ATOM     40  O4  IDS B   3     -19.974  48.428  13.0280  0.00  0.00     0.000 O
BRANCH 40 44
ATOM     41  C1  IDS B   3     -16.553  47.880  13.5770  0.00  0.00     0.000 C
ATOM     42  C2  IDS B   3     -17.383  46.871  12.7860  0.00  0.00     0.000 C
ATOM     43  C3  IDS B   3     -18.733  46.478  13.4160  0.00  0.00     0.000 C
ATOM     44  C4  IDS B   3     -19.405  47.679  14.0500  0.00  0.00     0.000 C
ATOM     45  C5  IDS B   3     -18.415  48.542  14.8470  0.00  0.00     0.000 C
ATOM     46  O5  IDS B   3     -17.371  48.946  14.0380  0.00  0.00     0.000 O
ATOM     47   O  IDS B   3     -18.516  45.510  14.4210  0.00  0.00     0.000 O
ATOM     49  HD  IDS B   3     -18.966  45.931  13.8130  0.00  0.00     0.000 HD
BRANCH 42 49
ATOM     49   O  IDS B   3     -17.658  47.412  11.5260  0.00  0.00     0.000 O
ATOM     50   O  IDS B   3     -15.601  46.632  10.6850  0.00  0.00     0.000 OA
ATOM     51   O  IDS B   3     -17.521  46.536   9.3030  0.00  0.00     0.000 OA
ATOM     52   O  IDS B   3     -16.568  48.618   9.8770  0.00  0.00     0.000 OA
ATOM     53  @S  IDS B   3     -16.787  47.288  10.2730  0.00  0.00     0.000 S
ENDBRANCH 42 49
BRANCH 45 54
ATOM     54 @CA  IDS B   3     -19.021  49.756  15.5470  0.00  0.00     0.000 C
ATOM     55   O  IDS B   3     -18.701  50.877  15.2560  0.00  0.00     0.000 OA
ATOM     56   O  IDS B   3     -19.848  49.634  16.3890  0.00  0.00     0.000 OA
ENDBRANCH 45 54
BRANCH 41 57
ATOM     57  O4  SGN B   4     -15.911  47.234  14.6270  0.00  0.00     0.000 O
BRANCH 57 61
ATOM     58  C1  SGN B   4     -13.245  50.250  15.5190  0.00  0.00     0.000 C
ATOM     59  C2  SGN B   4     -12.909  49.418  14.2920  0.00  0.00     0.000 C
ATOM     60  C3  SGN B   4     -14.136  48.624  13.8530  0.00  0.00     0.000 C
ATOM     61  C4  SGN B   4     -14.678  47.765  15.0020  0.00  0.00     0.000 C
ATOM     62  C5  SGN B   4     -14.894  48.677  16.2060  0.00  0.00     0.000 C
ATOM     63  O5  SGN B   4     -13.711  49.381  16.5370  0.00  0.00     0.000 O
ATOM     64   O  SGN B   4     -13.769  47.771  12.7890  0.00  0.00     0.000 O
ATOM     66  HD  SGN B   4     -13.875  46.922  12.9220  0.00  0.00     0.000 HD
BRANCH 59 68
ATOM     66   N  SGN B   4     -11.507  49.578  13.9640  0.00  0.00     0.000 N
ATOM     68  HD  SGN B   4     -11.999  49.571  14.6770  0.00  0.00     0.000 HD
ATOM     68 @NS  SGN B   4     -10.973  50.983  13.3070  0.00  0.00     0.000 S
ATOM     69   O  SGN B   4     -11.972  51.461  12.3970  0.00  0.00     0.000 OA
ATOM     70   O  SGN B   4     -10.788  51.890  14.4010  0.00  0.00     0.000 OA
ATOM     71   O  SGN B   4      -9.752  50.625  12.6500  0.00  0.00     0.000 OA
ENDBRANCH 59 68
BRANCH 62 72
ATOM     72   C  SGN B   4     -15.313  47.917  17.4560  0.00  0.00     0.000 C
ATOM     73   O  SGN B   4     -16.362  48.655  18.0090  0.00  0.00     0.000 O
ATOM     74  @S  SGN B   4     -17.562  48.121  18.8100  0.00  0.00     0.000 S
ATOM     75   O  SGN B   4     -17.046  47.432  19.9350  0.00  0.00     0.000 OA
ATOM     76   O  SGN B   4     -18.288  49.298  19.1810  0.00  0.00     0.000 OA
ATOM     77   O  SGN B   4     -18.254  47.238  17.9330  0.00  0.00     0.000 OA
ENDBRANCH 62 72
BRANCH 58 78
ATOM     78  O4  IDS B   5     -14.192  51.245  15.1870  0.00  0.00     0.000 O
BRANCH 78 82
ATOM     79  C1  IDS B   5     -16.060  54.082  14.5090  0.00  0.00     0.000 C
ATOM     80  C2  IDS B   5     -14.778  53.855  13.7670  0.00  0.00     0.000 C
ATOM     81  C3  IDS B   5     -13.593  53.526  14.6720  0.00  0.00     0.000 C
ATOM     82  C4  IDS B   5     -13.940  52.516  15.7470  0.00  0.00     0.000 C
ATOM     83  C5  IDS B   5     -15.181  52.996  16.4300  0.00  0.00     0.000 C
ATOM     84  O5  IDS B   5     -16.237  53.078  15.4920  0.00  0.00     0.000 O
ATOM     85   O  IDS B   5     -13.199  54.714  15.3130  0.00  0.00     0.000 O
ATOM     87  HD  IDS B   5     -13.401  53.951  15.6690  0.00  0.00     0.000 HD
BRANCH 80 87
ATOM     87   O  IDS B   5     -14.951  52.782  12.9290  0.00  0.00     0.000 O
ATOM     88  @S  IDS B   5     -15.172  52.823  11.4150  0.00  0.00     0.000 S
ATOM     89   O  IDS B   5     -14.102  53.603  10.9070  0.00  0.00     0.000 OA
ATOM     90   O  IDS B   5     -15.156  51.466  10.9940  0.00  0.00     0.000 OA
ATOM     91   O  IDS B   5     -16.444  53.426  11.2190  0.00  0.00     0.000 OA
ENDBRANCH 80 87
BRANCH 83 92
ATOM     92 @CA  IDS B   5     -15.555  52.182  17.6640  0.00  0.00     0.000 C
ATOM     93   O  IDS B   5     -16.729  51.883  17.8950  0.00  0.00     0.000 OA
ATOM     94   O  IDS B   5     -14.684  51.811  18.4610  0.00  0.00     0.000 OA
ENDBRANCH 83 92
BRANCH 79 95
ATOM     95  O4  SGN B   6     -16.059  55.359  15.0560  0.00  0.00     0.000 O
BRANCH 95 99
ATOM     96  C1  SGN B   6     -18.899  57.946  16.6220  0.00  0.00     0.000 C
ATOM     97  C2  SGN B   6     -18.840  56.560  17.2530  0.00  0.00     0.000 C
ATOM     98  C3  SGN B   6     -17.448  56.003  16.9550  0.00  0.00     0.000 C
ATOM     99  C4  SGN B   6     -17.340  55.847  15.4110  0.00  0.00     0.000 C
ATOM    100  C5  SGN B   6     -17.522  57.268  14.8070  0.00  0.00     0.000 C
ATOM    101  O5  SGN B   6     -18.753  57.855  15.2180  0.00  0.00     0.000 O
BRANCH 97 104
ATOM    102   N  SGN B   6     -20.077  55.902  17.6850  0.00  0.00     0.000 N
ATOM    104  HD  SGN B   6     -20.713  56.487  17.7420  0.00  0.00     0.000 HD
ATOM    104 @NS  SGN B   6     -20.709  56.344  19.1540  0.00  0.00     0.000 S
ATOM    105   O  SGN B   6     -19.859  57.376  19.7050  0.00  0.00     0.000 OA
ATOM    106   O  SGN B   6     -22.051  56.818  18.9040  0.00  0.00     0.000 OA
ATOM    107   O  SGN B   6     -20.688  55.152  19.9730  0.00  0.00     0.000 OA
ENDBRANCH 97 104
BRANCH 100 108
ATOM    108   C  SGN B   6     -17.503  57.357  13.2850  0.00  0.00     0.000 C
ATOM    109   O  SGN B   6     -18.509  56.529  12.7570  0.00  0.00     0.000 O
ATOM    110  @S  SGN B   6     -18.825  56.326  11.2310  0.00  0.00     0.000 S
ATOM    111   O  SGN B   6     -17.545  56.260  10.5660  0.00  0.00     0.000 OA
ATOM    112   O  SGN B   6     -19.560  55.075  11.1270  0.00  0.00     0.000 OA
ATOM    113   O  SGN B   6     -19.602  57.478  10.8350  0.00  0.00     0.000 OA
ENDBRANCH 100 108
ENDBRANCH 95 99
ENDBRANCH 79 95
ENDBRANCH 78 82
ENDBRANCH 58 78
ENDBRANCH 57 61
ENDBRANCH 41 57
ENDBRANCH 40 44
ENDBRANCH 20 40
ENDBRANCH 19 23
ENDBRANCH 1 19
TORSDOF 22
ENDMDL
MODEL 63
REMARK VINA RESULT:       3.0      3.526      8.911
ROOT
ATOM      1  C1  IDS B   1     -26.270  59.645  10.6200  0.00  0.00     0.000 C
ATOM      2  C2  IDS B   1     -27.292  60.730  10.8340  0.00  0.00     0.000 C
ATOM      3  C3  IDS B   1     -28.768  60.334  10.5900  0.00  0.00     0.000 C
ATOM      4  C4  IDS B   1     -29.063  58.808  10.8410  0.00  0.00     0.000 C
ATOM      5  C5  IDS B   1     -27.825  57.912  10.5930  0.00  0.00     0.000 C
ATOM      6  O5  IDS B   1     -26.703  58.451  11.2390  0.00  0.00     0.000 O
ATOM      7   O  IDS B   1     -29.088  60.703   9.2520  0.00  0.00     0.000 O
ATOM      9  HD  IDS B   1     -29.617  60.069   9.5120  0.00  0.00     0.000 HD
ATOM      9   O  IDS B   1     -29.443  58.661  12.1910  0.00  0.00     0.000 O
ATOM     11  HD  IDS B   1     -29.972  58.027  12.4500  0.00  0.00     0.000 HD
ENDROOT
BRANCH 2 11
ATOM     11   O  IDS B   1     -27.220  61.187  12.1410  0.00  0.00     0.000 O
ATOM     12  @S  IDS B   1     -26.759  62.600  12.5470  0.00  0.00     0.000 S
ATOM     13   O  IDS B   1     -25.884  63.003  11.4640  0.00  0.00     0.000 OA
ATOM     14   O  IDS B   1     -27.954  63.419  12.6330  0.00  0.00     0.000 OA
ATOM     15   O  IDS B   1     -26.088  62.445  13.8230  0.00  0.00     0.000 OA
ENDBRANCH 2 11
BRANCH 5 16
ATOM     16 @CA  IDS B   1     -27.968  56.436  10.9540  0.00  0.00     0.000 C
ATOM     17   O  IDS B   1     -29.030  55.973  11.3630  0.00  0.00     0.000 OA
ATOM     18   O  IDS B   1     -27.017  55.669  10.8300  0.00  0.00     0.000 OA
ENDBRANCH 5 16
BRANCH 1 19
ATOM     19  O4  SGN B   2     -26.113  59.462   9.2280  0.00  0.00     0.000 O
BRANCH 19 23
ATOM     20  C1  SGN B   2     -22.290  58.014   9.0130  0.00  0.00     0.000 C
ATOM     21  C2  SGN B   2     -22.494  59.494   9.2520  0.00  0.00     0.000 C
ATOM     22  C3  SGN B   2     -23.830  59.716   9.8630  0.00  0.00     0.000 C
ATOM     23  C4  SGN B   2     -24.812  59.250   8.8130  0.00  0.00     0.000 C
ATOM     24  C5  SGN B   2     -24.599  57.780   8.7030  0.00  0.00     0.000 C
ATOM     25  O5  SGN B   2     -23.341  57.535   8.1860  0.00  0.00     0.000 O
ATOM     26   O  SGN B   2     -24.002  61.065  10.1200  0.00  0.00     0.000 O
ATOM     28  HD  SGN B   2     -24.225  61.902  10.1270  0.00  0.00     0.000 HD
BRANCH 21 30
ATOM     28   N  SGN B   2     -21.322  59.806   8.4860  0.00  0.00     0.000 N
ATOM     30  HD  SGN B   2     -20.958  59.020   8.4790  0.00  0.00     0.000 HD
ATOM     30 @NS  SGN B   2     -20.041  60.381   9.3030  0.00  0.00     0.000 S
ATOM     31   O  SGN B   2     -20.307  60.315  10.7000  0.00  0.00     0.000 OA
ATOM     32   O  SGN B   2     -18.998  59.514   8.9340  0.00  0.00     0.000 OA
ATOM     33   O  SGN B   2     -19.870  61.720   8.8790  0.00  0.00     0.000 OA
ENDBRANCH 21 30
BRANCH 24 34
ATOM     34   C  SGN B   2     -25.566  57.060   7.8380  0.00  0.00     0.000 C
ATOM     35   O  SGN B   2     -25.321  55.705   7.9760  0.00  0.00     0.000 O
ATOM     36  @S  SGN B   2     -26.238  54.624   7.4160  0.00  0.00     0.000 S
ATOM     37   O  SGN B   2     -25.706  54.353   6.0960  0.00  0.00     0.000 OA
ATOM     38   O  SGN B   2     -26.152  53.498   8.3170  0.00  0.00     0.000 OA
ATOM     39   O  SGN B   2     -27.567  55.219   7.4050  0.00  0.00     0.000 OA
ENDBRANCH 24 34
BRANCH 20 40
ATOM     40  O4  IDS B   3     -22.244  57.326  10.2250  0.00  0.00     0.000 O
BRANCH 40 44
ATOM     41  C1  IDS B   3     -21.472  54.323  11.8650  0.00  0.00     0.000 C
ATOM     42  C2  IDS B   3     -21.502  55.642  12.6350  0.00  0.00     0.000 C
ATOM     43  C3  IDS B   3     -20.764  56.819  11.9690  0.00  0.00     0.000 C
ATOM     44  C4  IDS B   3     -20.977  56.814  10.4690  0.00  0.00     0.000 C
ATOM     45  C5  IDS B   3     -20.854  55.403   9.8730  0.00  0.00     0.000 C
ATOM     46  O5  IDS B   3     -21.742  54.543  10.4890  0.00  0.00     0.000 O
ATOM     47   O  IDS B   3     -19.379  56.705  12.2210  0.00  0.00     0.000 O
ATOM     49  HD  IDS B   3     -20.119  57.118  12.0430  0.00  0.00     0.000 HD
BRANCH 42 49
ATOM     49   O  IDS B   3     -22.836  56.031  12.7980  0.00  0.00     0.000 O
ATOM     50   O  IDS B   3     -23.018  54.759  14.7730  0.00  0.00     0.000 OA
ATOM     51   O  IDS B   3     -24.077  56.873  14.6620  0.00  0.00     0.000 OA
ATOM     52   O  IDS B   3     -24.870  55.074  13.3560  0.00  0.00     0.000 OA
ATOM     53  @S  IDS B   3     -23.752  55.666  13.9690  0.00  0.00     0.000 S
ENDBRANCH 42 49
BRANCH 45 54
ATOM     54 @CA  IDS B   3     -21.022  55.317   8.3570  0.00  0.00     0.000 C
ATOM     55   O  IDS B   3     -22.001  54.832   7.8580  0.00  0.00     0.000 OA
ATOM     56   O  IDS B   3     -20.198  55.747   7.6200  0.00  0.00     0.000 OA
ENDBRANCH 45 54
BRANCH 41 57
ATOM     57  O4  SGN B   4     -20.244  53.701  12.0540  0.00  0.00     0.000 O
BRANCH 57 61
ATOM     58  C1  SGN B   4     -18.602  49.923  12.2160  0.00  0.00     0.000 C
ATOM     59  C2  SGN B   4     -18.966  50.421  10.8280  0.00  0.00     0.000 C
ATOM     60  C3  SGN B   4     -19.184  51.931  10.8610  0.00  0.00     0.000 C
ATOM     61  C4  SGN B   4     -20.237  52.315  11.9060  0.00  0.00     0.000 C
ATOM     62  C5  SGN B   4     -19.825  51.691  13.2370  0.00  0.00     0.000 C
ATOM     63  O5  SGN B   4     -19.635  50.294  13.1130  0.00  0.00     0.000 O
ATOM     64   O  SGN B   4     -19.636  52.353   9.5910  0.00  0.00     0.000 O
ATOM     66  HD  SGN B   4     -20.412  52.736   9.5670  0.00  0.00     0.000 HD
BRANCH 59 68
ATOM     66   N  SGN B   4     -19.063  49.331   9.8790  0.00  0.00     0.000 N
ATOM     68  HD  SGN B   4     -19.245  49.468  10.7140  0.00  0.00     0.000 HD
ATOM     68 @NS  SGN B   4     -17.713  48.523   9.4160  0.00  0.00     0.000 S
ATOM     69   O  SGN B   4     -16.641  49.467   9.3020  0.00  0.00     0.000 OA
ATOM     70   O  SGN B   4     -17.452  47.560  10.4460  0.00  0.00     0.000 OA
ATOM     71   O  SGN B   4     -18.066  47.932   8.1610  0.00  0.00     0.000 OA
ENDBRANCH 59 68
BRANCH 62 72
ATOM     72   C  SGN B   4     -20.861  51.896  14.3310  0.00  0.00     0.000 C
ATOM     73   O  SGN B   4     -20.158  51.809  15.5340  0.00  0.00     0.000 O
ATOM     74  @S  SGN B   4     -20.464  52.540  16.8530  0.00  0.00     0.000 S
ATOM     75   O  SGN B   4     -21.778  52.180  17.2400  0.00  0.00     0.000 OA
ATOM     76   O  SGN B   4     -19.476  52.048  17.7650  0.00  0.00     0.000 OA
ATOM     77   O  SGN B   4     -20.372  53.930  16.5570  0.00  0.00     0.000 OA
ENDBRANCH 62 72
BRANCH 58 78
ATOM     78  O4  IDS B   5     -17.344  50.437  12.6040  0.00  0.00     0.000 O
BRANCH 78 82
ATOM     79  C1  IDS B   5     -14.631  51.013  14.6790  0.00  0.00     0.000 C
ATOM     80  C2  IDS B   5     -14.444  51.074  13.1940  0.00  0.00     0.000 C
ATOM     81  C3  IDS B   5     -15.005  49.864  12.4510  0.00  0.00     0.000 C
ATOM     82  C4  IDS B   5     -16.381  49.463  12.9430  0.00  0.00     0.000 C
ATOM     83  C5  IDS B   5     -16.312  49.352  14.4330  0.00  0.00     0.000 C
ATOM     84  O5  IDS B   5     -15.952  50.604  14.9850  0.00  0.00     0.000 O
ATOM     85   O  IDS B   5     -14.138  48.780  12.6790  0.00  0.00     0.000 O
ATOM     87  HD  IDS B   5     -14.993  48.822  12.8070  0.00  0.00     0.000 HD
BRANCH 80 87
ATOM     87   O  IDS B   5     -15.109  52.178  12.7220  0.00  0.00     0.000 O
ATOM     88  @S  IDS B   5     -14.676  53.094  11.5750  0.00  0.00     0.000 S
ATOM     89   O  IDS B   5     -14.441  52.226  10.4780  0.00  0.00     0.000 OA
ATOM     90   O  IDS B   5     -15.756  53.997  11.3840  0.00  0.00     0.000 OA
ATOM     91   O  IDS B   5     -13.501  53.756  12.0230  0.00  0.00     0.000 OA
ENDBRANCH 80 87
BRANCH 83 92
ATOM     92 @CA  IDS B   5     -17.573  48.773  15.0630  0.00  0.00     0.000 C
ATOM     93   O  IDS B   5     -18.146  49.356  15.9870  0.00  0.00     0.000 OA
ATOM     94   O  IDS B   5     -18.043  47.702  14.6610  0.00  0.00     0.000 OA
ENDBRANCH 83 92
BRANCH 79 95
ATOM     95  O4  SGN B   6     -13.678  50.168  15.2330  0.00  0.00     0.000 O
BRANCH 95 99
ATOM     96  C1  SGN B   6     -12.360  49.235  19.0540  0.00  0.00     0.000 C
ATOM     97  C2  SGN B   6     -13.803  48.860  18.7370  0.00  0.00     0.000 C
ATOM     98  C3  SGN B   6     -13.904  48.763  17.2140  0.00  0.00     0.000 C
ATOM     99  C4  SGN B   6     -13.629  50.186  16.6480  0.00  0.00     0.000 C
ATOM    100  C5  SGN B   6     -12.190  50.572  17.0960  0.00  0.00     0.000 C
ATOM    101  O5  SGN B   6     -12.050  50.504  18.5120  0.00  0.00     0.000 O
BRANCH 97 104
ATOM    102   N  SGN B   6     -14.468  49.089  20.0230  0.00  0.00     0.000 N
ATOM    104  HD  SGN B   6     -13.982  48.768  20.6640  0.00  0.00     0.000 HD
ATOM    104 @NS  SGN B   6     -14.951  47.756  20.8860  0.00  0.00     0.000 S
ATOM    105   O  SGN B   6     -14.549  46.582  20.1420  0.00  0.00     0.000 OA
ATOM    106   O  SGN B   6     -14.300  47.836  22.1730  0.00  0.00     0.000 OA
ATOM    107   O  SGN B   6     -16.390  47.846  20.9880  0.00  0.00     0.000 OA
ENDBRANCH 97 104
BRANCH 100 108
ATOM    108   C  SGN B   6     -11.713  51.963  16.6930  0.00  0.00     0.000 C
ATOM    109   O  SGN B   6     -12.699  52.908  17.0260  0.00  0.00     0.000 O
ATOM    110  @S  SGN B   6     -12.609  54.457  16.7750  0.00  0.00     0.000 S
ATOM    111   O  SGN B   6     -12.004  54.614  15.4740  0.00  0.00     0.000 OA
ATOM    112   O  SGN B   6     -13.974  54.958  16.8080  0.00  0.00     0.000 OA
ATOM    113   O  SGN B   6     -11.786  54.979  17.8420  0.00  0.00     0.000 OA
ENDBRANCH 100 108
ENDBRANCH 95 99
ENDBRANCH 79 95
ENDBRANCH 78 82
ENDBRANCH 58 78
ENDBRANCH 57 61
ENDBRANCH 41 57
ENDBRANCH 40 44
ENDBRANCH 20 40
ENDBRANCH 19 23
ENDBRANCH 1 19
TORSDOF 22
ENDMDL
MODEL 64
REMARK VINA RESULT:       3.2      2.815      9.259
ROOT
ATOM      1  C1  IDS B   1     -27.974  54.767  10.7770  0.00  0.00     0.000 C
ATOM      2  C2  IDS B   1     -28.086  55.869  11.7980  0.00  0.00     0.000 C
ATOM      3  C3  IDS B   1     -27.153  57.086  11.5910  0.00  0.00     0.000 C
ATOM      4  C4  IDS B   1     -26.768  57.340  10.0850  0.00  0.00     0.000 C
ATOM      5  C5  IDS B   1     -26.775  56.042   9.2410  0.00  0.00     0.000 C
ATOM      6  O5  IDS B   1     -27.953  55.320   9.4770  0.00  0.00     0.000 O
ATOM      7   O  IDS B   1     -25.991  56.868  12.3860  0.00  0.00     0.000 O
ATOM      9  HD  IDS B   1     -25.800  57.407  11.7350  0.00  0.00     0.000 HD
ATOM      9   O  IDS B   1     -27.727  58.218   9.5400  0.00  0.00     0.000 O
ATOM     11  HD  IDS B   1     -27.535  58.757   8.8890  0.00  0.00     0.000 HD
ENDROOT
BRANCH 2 11
ATOM     11   O  IDS B   1     -29.380  56.365  11.8090  0.00  0.00     0.000 O
ATOM     12  @S  IDS B   1     -29.825  57.624  12.5770  0.00  0.00     0.000 S
ATOM     13   O  IDS B   1     -28.877  57.716  13.6700  0.00  0.00     0.000 OA
ATOM     14   O  IDS B   1     -29.716  58.737  11.6500  0.00  0.00     0.000 OA
ATOM     15   O  IDS B   1     -31.189  57.371  12.9960  0.00  0.00     0.000 OA
ENDBRANCH 2 11
BRANCH 5 16
ATOM     16 @CA  IDS B   1     -26.562  56.205   7.7390  0.00  0.00     0.000 C
ATOM     17   O  IDS B   1     -26.203  57.274   7.2510  0.00  0.00     0.000 OA
ATOM     18   O  IDS B   1     -26.734  55.255   6.9780  0.00  0.00     0.000 OA
ENDBRANCH 5 16
BRANCH 1 19
ATOM     19  O4  SGN B   2     -26.785  54.050  11.0370  0.00  0.00     0.000 O
BRANCH 19 23
ATOM     20  C1  SGN B   2     -26.052  50.298  12.5030  0.00  0.00     0.000 C
ATOM     21  C2  SGN B   2     -27.005  50.450  11.3380  0.00  0.00     0.000 C
ATOM     22  C3  SGN B   2     -26.697  51.707  10.6080  0.00  0.00     0.000 C
ATOM     23  C4  SGN B   2     -26.971  52.806  11.6100  0.00  0.00     0.000 C
ATOM     24  C5  SGN B   2     -25.941  52.631  12.6720  0.00  0.00     0.000 C
ATOM     25  O5  SGN B   2     -26.166  51.442  13.3380  0.00  0.00     0.000 O
ATOM     26   O  SGN B   2     -27.541  51.827   9.5180  0.00  0.00     0.000 O
ATOM     28  HD  SGN B   2     -28.157  52.033   8.9450  0.00  0.00     0.000 HD
BRANCH 21 30
ATOM     28   N  SGN B   2     -28.083  49.511  11.4410  0.00  0.00     0.000 N
ATOM     30  HD  SGN B   2     -27.962  49.263  12.2620  0.00  0.00     0.000 HD
ATOM     30 @NS  SGN B   2     -27.786  47.990  10.9500  0.00  0.00     0.000 S
ATOM     31   O  SGN B   2     -26.401  47.860  10.6410  0.00  0.00     0.000 OA
ATOM     32   O  SGN B   2     -28.141  47.209  12.0620  0.00  0.00     0.000 OA
ATOM     33   O  SGN B   2     -28.586  47.781   9.8030  0.00  0.00     0.000 OA
ENDBRANCH 21 30
BRANCH 24 34
ATOM     34   C  SGN B   2     -25.903  53.699  13.7030  0.00  0.00     0.000 C
ATOM     35   O  SGN B   2     -24.710  53.572  14.3910  0.00  0.00     0.000 O
ATOM     36  @S  SGN B   2     -24.199  54.609  15.3850  0.00  0.00     0.000 S
ATOM     37   O  SGN B   2     -24.720  54.165  16.6620  0.00  0.00     0.000 OA
ATOM     38   O  SGN B   2     -22.757  54.582  15.3070  0.00  0.00     0.000 OA
ATOM     39   O  SGN B   2     -24.752  55.877  14.9310  0.00  0.00     0.000 OA
ENDBRANCH 24 34
BRANCH 20 40
ATOM     40  O4  IDS B   3     -24.744  50.133  12.0460  0.00  0.00     0.000 O
BRANCH 40 44
ATOM     41  C1  IDS B   3     -21.434  49.027  12.3970  0.00  0.00     0.000 C
ATOM     42  C2  IDS B   3     -22.554  48.396  13.2230  0.00  0.00     0.000 C
ATOM     43  C3  IDS B   3     -23.521  49.387  13.9010  0.00  0.00     0.000 C
ATOM     44  C4  IDS B   3     -23.820  50.561  12.9900  0.00  0.00     0.000 C
ATOM     45  C5  IDS B   3     -22.557  51.087  12.2910  0.00  0.00     0.000 C
ATOM     46  O5  IDS B   3     -21.943  50.073  11.5830  0.00  0.00     0.000 O
ATOM     47   O  IDS B   3     -22.929  49.883  15.0830  0.00  0.00     0.000 O
ATOM     49  HD  IDS B   3     -23.581  49.667  14.5550  0.00  0.00     0.000 HD
BRANCH 42 49
ATOM     49   O  IDS B   3     -23.321  47.581  12.3830  0.00  0.00     0.000 O
ATOM     50   O  IDS B   3     -22.031  45.695  12.9530  0.00  0.00     0.000 OA
ATOM     51   O  IDS B   3     -24.370  45.452  12.6840  0.00  0.00     0.000 OA
ATOM     52   O  IDS B   3     -22.997  45.906  10.8190  0.00  0.00     0.000 OA
ATOM     53  @S  IDS B   3     -23.173  46.068  12.2030  0.00  0.00     0.000 S
ENDBRANCH 42 49
BRANCH 45 54
ATOM     54 @CA  IDS B   3     -22.769  52.295  11.3800  0.00  0.00     0.000 C
ATOM     55   O  IDS B   3     -23.109  52.169  10.2350  0.00  0.00     0.000 OA
ATOM     56   O  IDS B   3     -22.626  53.402  11.7810  0.00  0.00     0.000 OA
ENDBRANCH 45 54
BRANCH 41 57
ATOM     57  O4  SGN B   4     -20.429  49.478  13.2430  0.00  0.00     0.000 O
BRANCH 57 61
ATOM     58  C1  SGN B   4     -16.345  50.021  13.0670  0.00  0.00     0.000 C
ATOM     59  C2  SGN B   4     -17.083  50.158  11.7460  0.00  0.00     0.000 C
ATOM     60  C3  SGN B   4     -18.578  50.326  12.0030  0.00  0.00     0.000 C
ATOM     61  C4  SGN B   4     -19.125  49.173  12.8530  0.00  0.00     0.000 C
ATOM     62  C5  SGN B   4     -18.261  49.064  14.1060  0.00  0.00     0.000 C
ATOM     63  O5  SGN B   4     -16.892  48.921  13.7760  0.00  0.00     0.000 O
ATOM     64   O  SGN B   4     -19.255  50.331  10.7630  0.00  0.00     0.000 O
ATOM     66  HD  SGN B   4     -19.845  49.709  10.6450  0.00  0.00     0.000 HD
BRANCH 59 68
ATOM     66   N  SGN B   4     -16.210  50.054  10.5950  0.00  0.00     0.000 N
ATOM     68  HD  SGN B   4     -16.290  49.678  11.3710  0.00  0.00     0.000 HD
ATOM     68 @NS  SGN B   4     -15.081  51.209  10.3140  0.00  0.00     0.000 S
ATOM     69   O  SGN B   4     -15.642  52.481  10.6640  0.00  0.00     0.000 OA
ATOM     70   O  SGN B   4     -13.962  50.885  11.1510  0.00  0.00     0.000 OA
ATOM     71   O  SGN B   4     -14.797  51.095   8.9160  0.00  0.00     0.000 OA
ENDBRANCH 59 68
BRANCH 62 72
ATOM     72   C  SGN B   4     -18.627  47.870  14.9740  0.00  0.00     0.000 C
ATOM     73   O  SGN B   4     -19.105  48.409  16.1710  0.00  0.00     0.000 O
ATOM     74  @S  SGN B   4     -20.175  47.816  17.1040  0.00  0.00     0.000 S
ATOM     75   O  SGN B   4     -19.723  46.534  17.5040  0.00  0.00     0.000 OA
ATOM     76   O  SGN B   4     -20.236  48.736  18.1980  0.00  0.00     0.000 OA
ATOM     77   O  SGN B   4     -21.364  47.727  16.3250  0.00  0.00     0.000 OA
ENDBRANCH 62 72
BRANCH 58 78
ATOM     78  O4  IDS B   5     -16.429  51.226  13.7990  0.00  0.00     0.000 O
BRANCH 78 82
ATOM     79  C1  IDS B   5     -16.065  54.158  15.6090  0.00  0.00     0.000 C
ATOM     80  C2  IDS B   5     -15.737  54.154  14.1470  0.00  0.00     0.000 C
ATOM     81  C3  IDS B   5     -14.811  53.015  13.7260  0.00  0.00     0.000 C
ATOM     82  C4  IDS B   5     -15.206  51.685  14.3340  0.00  0.00     0.000 C
ATOM     83  C5  IDS B   5     -15.372  51.893  15.8060  0.00  0.00     0.000 C
ATOM     84  O5  IDS B   5     -16.392  52.847  16.0360  0.00  0.00     0.000 O
ATOM     85   O  IDS B   5     -13.516  53.324  14.1820  0.00  0.00     0.000 O
ATOM     87  HD  IDS B   5     -13.978  52.605  14.3180  0.00  0.00     0.000 HD
BRANCH 80 87
ATOM     87   O  IDS B   5     -16.906  53.999  13.4440  0.00  0.00     0.000 O
ATOM     88  @S  IDS B   5     -17.615  55.054  12.5910  0.00  0.00     0.000 S
ATOM     89   O  IDS B   5     -16.625  55.526  11.6910  0.00  0.00     0.000 OA
ATOM     90   O  IDS B   5     -18.694  54.373  11.9680  0.00  0.00     0.000 OA
ATOM     91   O  IDS B   5     -18.066  56.052  13.4970  0.00  0.00     0.000 OA
ENDBRANCH 80 87
BRANCH 83 92
ATOM     92 @CA  IDS B   5     -15.588  50.603  16.5870  0.00  0.00     0.000 C
ATOM     93   O  IDS B   5     -16.698  50.315  17.0420  0.00  0.00     0.000 OA
ATOM     94   O  IDS B   5     -14.649  49.822  16.7850  0.00  0.00     0.000 OA
ENDBRANCH 83 92
BRANCH 79 95
ATOM     95  O4  SGN B   6     -15.001  54.693  16.3220  0.00  0.00     0.000 O
BRANCH 95 99
ATOM     96  C1  SGN B   6     -14.049  54.992  20.3490  0.00  0.00     0.000 C
ATOM     97  C2  SGN B   6     -13.618  53.705  19.6560  0.00  0.00     0.000 C
ATOM     98  C3  SGN B   6     -13.548  54.017  18.1600  0.00  0.00     0.000 C
ATOM     99  C4  SGN B   6     -14.992  54.364  17.6990  0.00  0.00     0.000 C
ATOM    100  C5  SGN B   6     -15.431  55.612  18.5170  0.00  0.00     0.000 C
ATOM    101  O5  SGN B   6     -15.341  55.374  19.9190  0.00  0.00     0.000 O
BRANCH 97 104
ATOM    102   N  SGN B   6     -12.386  53.382  20.3820  0.00  0.00     0.000 N
ATOM    104  HD  SGN B   6     -12.097  52.604  20.1330  0.00  0.00     0.000 HD
ATOM    104 @NS  SGN B   6     -12.420  52.081  21.4120  0.00  0.00     0.000 S
ATOM    105   O  SGN B   6     -13.740  51.493  21.3330  0.00  0.00     0.000 OA
ATOM    106   O  SGN B   6     -11.390  51.172  20.9680  0.00  0.00     0.000 OA
ATOM    107   O  SGN B   6     -12.159  52.610  22.7320  0.00  0.00     0.000 OA
ENDBRANCH 97 104
BRANCH 100 108
ATOM    108   C  SGN B   6     -16.850  56.112  18.2670  0.00  0.00     0.000 C
ATOM    109   O  SGN B   6     -17.768  55.117  18.6450  0.00  0.00     0.000 O
ATOM    110  @S  SGN B   6     -19.333  55.224  18.5450  0.00  0.00     0.000 S
ATOM    111   O  SGN B   6     -19.605  55.886  17.2910  0.00  0.00     0.000 OA
ATOM    112   O  SGN B   6     -19.840  53.862  18.5670  0.00  0.00     0.000 OA
ATOM    113   O  SGN B   6     -19.746  56.004  19.6900  0.00  0.00     0.000 OA
ENDBRANCH 100 108
ENDBRANCH 95 99
ENDBRANCH 79 95
ENDBRANCH 78 82
ENDBRANCH 58 78
ENDBRANCH 57 61
ENDBRANCH 41 57
ENDBRANCH 40 44
ENDBRANCH 20 40
ENDBRANCH 19 23
ENDBRANCH 1 19
TORSDOF 22
ENDMDL
MODEL 65
REMARK VINA RESULT:       3.2      2.525      8.302
ROOT
ATOM      1  C1  IDS B   1     -28.317  51.376  10.5090  0.00  0.00     0.000 C
ATOM      2  C2  IDS B   1     -29.163  52.185  11.4570  0.00  0.00     0.000 C
ATOM      3  C3  IDS B   1     -28.837  53.695  11.5410  0.00  0.00     0.000 C
ATOM      4  C4  IDS B   1     -28.221  54.284  10.2170  0.00  0.00     0.000 C
ATOM      5  C5  IDS B   1     -27.438  53.226   9.4010  0.00  0.00     0.000 C
ATOM      6  O5  IDS B   1     -28.198  52.055   9.2750  0.00  0.00     0.000 O
ATOM      7   O  IDS B   1     -27.952  53.876  12.6420  0.00  0.00     0.000 O
ATOM      9  HD  IDS B   1     -27.851  54.527  12.0790  0.00  0.00     0.000 HD
ATOM      9   O  IDS B   1     -29.285  54.748   9.4180  0.00  0.00     0.000 O
ATOM     11  HD  IDS B   1     -29.185  55.399   8.8560  0.00  0.00     0.000 HD
ENDROOT
BRANCH 2 11
ATOM     11   O  IDS B   1     -30.495  52.091  11.0880  0.00  0.00     0.000 O
ATOM     12  @S  IDS B   1     -31.586  51.401  11.9300  0.00  0.00     0.000 S
ATOM     13   O  IDS B   1     -30.856  50.420  12.7080  0.00  0.00     0.000 OA
ATOM     14   O  IDS B   1     -32.188  52.432  12.7570  0.00  0.00     0.000 OA
ATOM     15   O  IDS B   1     -32.517  50.828  10.9780  0.00  0.00     0.000 OA
ENDBRANCH 2 11
BRANCH 5 16
ATOM     16 @CA  IDS B   1     -26.930  53.662   8.0300  0.00  0.00     0.000 C
ATOM     17   O  IDS B   1     -26.365  52.876   7.2730  0.00  0.00     0.000 OA
ATOM     18   O  IDS B   1     -27.090  54.817   7.6440  0.00  0.00     0.000 OA
ENDBRANCH 5 16
BRANCH 1 19
ATOM     19  O4  SGN B   2     -27.050  51.190  11.1040  0.00  0.00     0.000 O
BRANCH 19 23
ATOM     20  C1  SGN B   2     -25.494  48.196  13.4230  0.00  0.00     0.000 C
ATOM     21  C2  SGN B   2     -26.311  47.822  12.2050  0.00  0.00     0.000 C
ATOM     22  C3  SGN B   2     -26.276  48.939  11.2250  0.00  0.00     0.000 C
ATOM     23  C4  SGN B   2     -26.953  50.089  11.9350  0.00  0.00     0.000 C
ATOM     24  C5  SGN B   2     -26.045  50.443  13.0610  0.00  0.00     0.000 C
ATOM     25  O5  SGN B   2     -26.012  49.401  13.9680  0.00  0.00     0.000 O
ATOM     26   O  SGN B   2     -26.989  48.583  10.0940  0.00  0.00     0.000 O
ATOM     28  HD  SGN B   2     -27.568  48.479   9.4580  0.00  0.00     0.000 HD
BRANCH 21 30
ATOM     28   N  SGN B   2     -25.669  46.599  11.8210  0.00  0.00     0.000 N
ATOM     30  HD  SGN B   2     -26.052  46.486  11.0530  0.00  0.00     0.000 HD
ATOM     30 @NS  SGN B   2     -26.341  45.217  12.3480  0.00  0.00     0.000 S
ATOM     31   O  SGN B   2     -27.576  45.512  12.9920  0.00  0.00     0.000 OA
ATOM     32   O  SGN B   2     -26.538  44.476  11.1710  0.00  0.00     0.000 OA
ATOM     33   O  SGN B   2     -25.416  44.648  13.2540  0.00  0.00     0.000 OA
ENDBRANCH 21 30
BRANCH 24 34
ATOM     34   C  SGN B   2     -26.419  51.661  13.8220  0.00  0.00     0.000 C
ATOM     35   O  SGN B   2     -25.696  51.656  15.0010  0.00  0.00     0.000 O
ATOM     36  @S  SGN B   2     -25.638  52.842  15.9560  0.00  0.00     0.000 S
ATOM     37   O  SGN B   2     -26.722  52.603  16.8870  0.00  0.00     0.000 OA
ATOM     38   O  SGN B   2     -24.331  52.816  16.5720  0.00  0.00     0.000 OA
ATOM     39   O  SGN B   2     -25.828  54.017  15.1180  0.00  0.00     0.000 OA
ENDBRANCH 24 34
BRANCH 20 40
ATOM     40  O4  IDS B   3     -24.148  48.330  13.0850  0.00  0.00     0.000 O
BRANCH 40 44
ATOM     41  C1  IDS B   3     -20.724  47.571  13.0090  0.00  0.00     0.000 C
ATOM     42  C2  IDS B   3     -21.765  46.454  13.0640  0.00  0.00     0.000 C
ATOM     43  C3  IDS B   3     -22.886  46.639  14.1050  0.00  0.00     0.000 C
ATOM     44  C4  IDS B   3     -23.326  48.087  14.1780  0.00  0.00     0.000 C
ATOM     45  C5  IDS B   3     -22.132  49.055  14.1640  0.00  0.00     0.000 C
ATOM     46  O5  IDS B   3     -21.355  48.843  13.0420  0.00  0.00     0.000 O
ATOM     47   O  IDS B   3     -22.410  46.256  15.3780  0.00  0.00     0.000 O
ATOM     49  HD  IDS B   3     -23.006  46.397  14.7660  0.00  0.00     0.000 HD
BRANCH 42 49
ATOM     49   O  IDS B   3     -22.379  46.357  11.8100  0.00  0.00     0.000 O
ATOM     50   O  IDS B   3     -20.419  45.455  10.8650  0.00  0.00     0.000 OA
ATOM     51   O  IDS B   3     -22.521  44.600  10.1910  0.00  0.00     0.000 OA
ATOM     52   O  IDS B   3     -21.878  46.791   9.5920  0.00  0.00     0.000 OA
ATOM     53  @S  IDS B   3     -21.763  45.761  10.5410  0.00  0.00     0.000 S
ENDBRANCH 42 49
BRANCH 45 54
ATOM     54 @CA  IDS B   3     -22.489  50.536  14.2690  0.00  0.00     0.000 C
ATOM     55   O  IDS B   3     -22.370  51.141  15.3000  0.00  0.00     0.000 OA
ATOM     56   O  IDS B   3     -22.877  51.145  13.3280  0.00  0.00     0.000 OA
ENDBRANCH 45 54
BRANCH 41 57
ATOM     57  O4  SGN B   4     -19.822  47.418  14.0540  0.00  0.00     0.000 O
BRANCH 57 61
ATOM     58  C1  SGN B   4     -17.420  50.673  13.2550  0.00  0.00     0.000 C
ATOM     59  C2  SGN B   4     -17.277  49.501  12.2980  0.00  0.00     0.000 C
ATOM     60  C3  SGN B   4     -18.463  48.555  12.4580  0.00  0.00     0.000 C
ATOM     61  C4  SGN B   4     -18.611  48.096  13.9140  0.00  0.00     0.000 C
ATOM     62  C5  SGN B   4     -18.654  49.342  14.7950  0.00  0.00     0.000 C
ATOM     63  O5  SGN B   4     -17.524  50.166  14.5740  0.00  0.00     0.000 O
ATOM     64   O  SGN B   4     -18.250  47.417  11.6480  0.00  0.00     0.000 O
ATOM     66  HD  SGN B   4     -18.216  46.654  12.0570  0.00  0.00     0.000 HD
BRANCH 59 68
ATOM     66   N  SGN B   4     -16.024  49.602  11.5790  0.00  0.00     0.000 N
ATOM     68  HD  SGN B   4     -16.328  49.805  12.3640  0.00  0.00     0.000 HD
ATOM     68 @NS  SGN B   4     -15.836  50.740  10.4130  0.00  0.00     0.000 S
ATOM     69   O  SGN B   4     -17.073  50.860   9.6990  0.00  0.00     0.000 OA
ATOM     70   O  SGN B   4     -15.507  51.959  11.0940  0.00  0.00     0.000 OA
ATOM     71   O  SGN B   4     -14.772  50.239   9.5970  0.00  0.00     0.000 OA
ENDBRANCH 59 68
BRANCH 62 72
ATOM     72   C  SGN B   4     -18.672  49.014  16.2800  0.00  0.00     0.000 C
ATOM     73   O  SGN B   4     -20.022  48.938  16.6300  0.00  0.00     0.000 O
ATOM     74  @S  SGN B   4     -20.659  48.050  17.7130  0.00  0.00     0.000 S
ATOM     75   O  SGN B   4     -20.042  48.376  18.9450  0.00  0.00     0.000 OA
ATOM     76   O  SGN B   4     -22.046  48.408  17.6890  0.00  0.00     0.000 OA
ATOM     77   O  SGN B   4     -20.378  46.708  17.3290  0.00  0.00     0.000 OA
ENDBRANCH 62 72
BRANCH 58 78
ATOM     78  O4  IDS B   5     -18.535  51.463  12.8940  0.00  0.00     0.000 O
BRANCH 78 82
ATOM     79  C1  IDS B   5     -20.996  53.872  12.5230  0.00  0.00     0.000 C
ATOM     80  C2  IDS B   5     -20.234  53.412  11.3180  0.00  0.00     0.000 C
ATOM     81  C3  IDS B   5     -18.719  53.427  11.5040  0.00  0.00     0.000 C
ATOM     82  C4  IDS B   5     -18.288  52.851  12.8370  0.00  0.00     0.000 C
ATOM     83  C5  IDS B   5     -19.092  53.527  13.9020  0.00  0.00     0.000 C
ATOM     84  O5  IDS B   5     -20.468  53.270  13.6910  0.00  0.00     0.000 O
ATOM     85   O  IDS B   5     -18.295  54.768  11.4610  0.00  0.00     0.000 O
ATOM     87  HD  IDS B   5     -18.143  54.174  12.0730  0.00  0.00     0.000 HD
BRANCH 80 87
ATOM     87   O  IDS B   5     -20.591  52.113  11.0530  0.00  0.00     0.000 O
ATOM     88  @S  IDS B   5     -21.433  51.610   9.8780  0.00  0.00     0.000 S
ATOM     89   O  IDS B   5     -20.799  52.131   8.7210  0.00  0.00     0.000 OA
ATOM     90   O  IDS B   5     -21.404  50.193   9.9720  0.00  0.00     0.000 OA
ATOM     91   O  IDS B   5     -22.740  52.131  10.0800  0.00  0.00     0.000 OA
ENDBRANCH 80 87
BRANCH 83 92
ATOM     92 @CA  IDS B   5     -18.642  53.190  15.3180  0.00  0.00     0.000 C
ATOM     93   O  IDS B   5     -19.400  52.618  16.1050  0.00  0.00     0.000 OA
ATOM     94   O  IDS B   5     -17.506  53.490  15.7060  0.00  0.00     0.000 OA
ENDBRANCH 83 92
BRANCH 79 95
ATOM     95  O4  SGN B   6     -20.969  55.259  12.5880  0.00  0.00     0.000 O
BRANCH 95 99
ATOM     96  C1  SGN B   6     -23.599  58.313  11.6070  0.00  0.00     0.000 C
ATOM     97  C2  SGN B   6     -24.212  57.102  12.3000  0.00  0.00     0.000 C
ATOM     98  C3  SGN B   6     -23.075  56.402  13.0430  0.00  0.00     0.000 C
ATOM     99  C4  SGN B   6     -22.070  55.898  11.9680  0.00  0.00     0.000 C
ATOM    100  C5  SGN B   6     -21.560  57.157  11.2110  0.00  0.00     0.000 C
ATOM    101  O5  SGN B   6     -22.639  57.902  10.6540  0.00  0.00     0.000 O
BRANCH 97 104
ATOM    102   N  SGN B   6     -25.550  56.616  11.9490  0.00  0.00     0.000 N
ATOM    104  HD  SGN B   6     -25.963  57.214  11.4780  0.00  0.00     0.000 HD
ATOM    104 @NS  SGN B   6     -26.853  57.442  12.5590  0.00  0.00     0.000 S
ATOM    105   O  SGN B   6     -26.344  58.557  13.3280  0.00  0.00     0.000 OA
ATOM    106   O  SGN B   6     -27.640  57.873  11.4270  0.00  0.00     0.000 OA
ATOM    107   O  SGN B   6     -27.563  56.504  13.4000  0.00  0.00     0.000 OA
ENDBRANCH 97 104
BRANCH 100 108
ATOM    108   C  SGN B   6     -20.589  56.902  10.0640  0.00  0.00     0.000 C
ATOM    109   O  SGN B   6     -21.311  56.736   8.8700  0.00  0.00     0.000 O
ATOM    110  @S  SGN B   6     -20.693  56.449   7.4540  0.00  0.00     0.000 S
ATOM    111   O  SGN B   6     -19.620  55.509   7.6730  0.00  0.00     0.000 OA
ATOM    112   O  SGN B   6     -21.761  55.881   6.6470  0.00  0.00     0.000 OA
ATOM    113   O  SGN B   6     -20.227  57.726   6.9630  0.00  0.00     0.000 OA
ENDBRANCH 100 108
ENDBRANCH 95 99
ENDBRANCH 79 95
ENDBRANCH 78 82
ENDBRANCH 58 78
ENDBRANCH 57 61
ENDBRANCH 41 57
ENDBRANCH 40 44
ENDBRANCH 20 40
ENDBRANCH 19 23
ENDBRANCH 1 19
TORSDOF 22
ENDMDL
MODEL 66
REMARK VINA RESULT:       3.4      2.559      9.031
ROOT
ATOM      1  C1  IDS B   1     -25.970  53.713  10.9120  0.00  0.00     0.000 C
ATOM      2  C2  IDS B   1     -26.557  54.622   9.8650  0.00  0.00     0.000 C
ATOM      3  C3  IDS B   1     -26.708  56.110  10.2630  0.00  0.00     0.000 C
ATOM      4  C4  IDS B   1     -25.656  56.589  11.3310  0.00  0.00     0.000 C
ATOM      5  C5  IDS B   1     -25.179  55.443  12.2550  0.00  0.00     0.000 C
ATOM      6  O5  IDS B   1     -24.832  54.320  11.4900  0.00  0.00     0.000 O
ATOM      7   O  IDS B   1     -28.038  56.287  10.7400  0.00  0.00     0.000 O
ATOM      9  HD  IDS B   1     -27.527  56.900  11.0740  0.00  0.00     0.000 HD
ATOM      9   O  IDS B   1     -24.533  57.083  10.6360  0.00  0.00     0.000 O
ATOM     11  HD  IDS B   1     -24.021  57.696  10.9700  0.00  0.00     0.000 HD
ENDROOT
BRANCH 2 11
ATOM     11   O  IDS B   1     -25.763  54.598   8.7290  0.00  0.00     0.000 O
ATOM     12  @S  IDS B   1     -26.157  55.223   7.3770  0.00  0.00     0.000 S
ATOM     13   O  IDS B   1     -27.605  55.200   7.3930  0.00  0.00     0.000 OA
ATOM     14   O  IDS B   1     -25.621  56.573   7.3700  0.00  0.00     0.000 OA
ATOM     15   O  IDS B   1     -25.562  54.377   6.3620  0.00  0.00     0.000 OA
ENDBRANCH 2 11
BRANCH 5 16
ATOM     16 @CA  IDS B   1     -24.048  55.774  13.2250  0.00  0.00     0.000 C
ATOM     17   O  IDS B   1     -22.871  55.574  12.9350  0.00  0.00     0.000 OA
ATOM     18   O  IDS B   1     -24.294  56.266  14.3240  0.00  0.00     0.000 OA
ENDBRANCH 5 16
BRANCH 1 19
ATOM     19  O4  SGN B   2     -26.963  53.473  11.8880  0.00  0.00     0.000 O
BRANCH 19 23
ATOM     20  C1  SGN B   2     -26.189  49.524  12.6390  0.00  0.00     0.000 C
ATOM     21  C2  SGN B   2     -27.166  49.876  11.5390  0.00  0.00     0.000 C
ATOM     22  C3  SGN B   2     -26.877  51.247  11.0420  0.00  0.00     0.000 C
ATOM     23  C4  SGN B   2     -27.133  52.145  12.2310  0.00  0.00     0.000 C
ATOM     24  C5  SGN B   2     -26.081  51.788  13.2240  0.00  0.00     0.000 C
ATOM     25  O5  SGN B   2     -26.289  50.497  13.6680  0.00  0.00     0.000 O
ATOM     26   O  SGN B   2     -27.744  51.555  10.0080  0.00  0.00     0.000 O
ATOM     28  HD  SGN B   2     -28.372  51.857   9.4940  0.00  0.00     0.000 HD
BRANCH 21 30
ATOM     28   N  SGN B   2     -27.143  48.911  10.4790  0.00  0.00     0.000 N
ATOM     30  HD  SGN B   2     -27.812  49.209  10.0170  0.00  0.00     0.000 HD
ATOM     30 @NS  SGN B   2     -27.948  47.522  10.7300  0.00  0.00     0.000 S
ATOM     31   O  SGN B   2     -28.670  47.614  11.9540  0.00  0.00     0.000 OA
ATOM     32   O  SGN B   2     -28.812  47.437   9.6260  0.00  0.00     0.000 OA
ATOM     33   O  SGN B   2     -26.968  46.503  10.7900  0.00  0.00     0.000 OA
ENDBRANCH 21 30
BRANCH 24 34
ATOM     34   C  SGN B   2     -26.025  52.653  14.4290  0.00  0.00     0.000 C
ATOM     35   O  SGN B   2     -25.754  51.839  15.5140  0.00  0.00     0.000 O
ATOM     36  @S  SGN B   2     -25.407  52.373  16.8990  0.00  0.00     0.000 S
ATOM     37   O  SGN B   2     -26.685  52.464  17.5760  0.00  0.00     0.000 OA
ATOM     38   O  SGN B   2     -24.501  51.420  17.4970  0.00  0.00     0.000 OA
ATOM     39   O  SGN B   2     -24.772  53.662  16.6630  0.00  0.00     0.000 OA
ENDBRANCH 24 34
BRANCH 20 40
ATOM     40  O4  IDS B   3     -24.890  49.452  12.1340  0.00  0.00     0.000 O
BRANCH 40 44
ATOM     41  C1  IDS B   3     -21.723  47.944  12.1570  0.00  0.00     0.000 C
ATOM     42  C2  IDS B   3     -22.921  47.242  12.7930  0.00  0.00     0.000 C
ATOM     43  C3  IDS B   3     -23.793  48.116  13.7160  0.00  0.00     0.000 C
ATOM     44  C4  IDS B   3     -23.948  49.514  13.1520  0.00  0.00     0.000 C
ATOM     45  C5  IDS B   3     -22.621  50.067  12.6080  0.00  0.00     0.000 C
ATOM     46  O5  IDS B   3     -22.102  49.216  11.6520  0.00  0.00     0.000 O
ATOM     47   O  IDS B   3     -23.179  48.215  14.9840  0.00  0.00     0.000 O
ATOM     49  HD  IDS B   3     -23.838  48.217  14.4220  0.00  0.00     0.000 HD
BRANCH 42 49
ATOM     49   O  IDS B   3     -23.751  46.765  11.7730  0.00  0.00     0.000 O
ATOM     50   O  IDS B   3     -22.367  44.885  11.4580  0.00  0.00     0.000 OA
ATOM     51   O  IDS B   3     -24.716  44.623  11.3160  0.00  0.00     0.000 OA
ATOM     52   O  IDS B   3     -23.550  45.837   9.6610  0.00  0.00     0.000 OA
ATOM     53  @S  IDS B   3     -23.588  45.447  11.0110  0.00  0.00     0.000 S
ENDBRANCH 42 49
BRANCH 45 54
ATOM     54 @CA  IDS B   3     -22.685  51.488  12.0520  0.00  0.00     0.000 C
ATOM     55   O  IDS B   3     -23.061  51.711  10.9330  0.00  0.00     0.000 OA
ATOM     56   O  IDS B   3     -22.384  52.424  12.7160  0.00  0.00     0.000 OA
ENDBRANCH 45 54
BRANCH 41 57
ATOM     57  O4  SGN B   4     -20.695  48.045  13.0860  0.00  0.00     0.000 O
BRANCH 57 61
ATOM     58  C1  SGN B   4     -16.664  48.789  12.6450  0.00  0.00     0.000 C
ATOM     59  C2  SGN B   4     -17.499  48.932  11.3840  0.00  0.00     0.000 C
ATOM     60  C3  SGN B   4     -18.978  49.020  11.7500  0.00  0.00     0.000 C
ATOM     61  C4  SGN B   4     -19.410  47.816  12.5950  0.00  0.00     0.000 C
ATOM     62  C5  SGN B   4     -18.455  47.709  13.7800  0.00  0.00     0.000 C
ATOM     63  O5  SGN B   4     -17.108  47.643  13.3510  0.00  0.00     0.000 O
ATOM     64   O  SGN B   4     -19.741  49.033  10.5610  0.00  0.00     0.000 O
ATOM     66  HD  SGN B   4     -20.309  48.386  10.4620  0.00  0.00     0.000 HD
BRANCH 59 68
ATOM     66   N  SGN B   4     -17.018  50.150  10.7640  0.00  0.00     0.000 N
ATOM     68  HD  SGN B   4     -17.657  49.579  10.6380  0.00  0.00     0.000 HD
ATOM     68 @NS  SGN B   4     -15.654  50.124   9.8540  0.00  0.00     0.000 S
ATOM     69   O  SGN B   4     -14.721  49.226  10.4680  0.00  0.00     0.000 OA
ATOM     70   O  SGN B   4     -16.049  49.658   8.5560  0.00  0.00     0.000 OA
ATOM     71   O  SGN B   4     -15.200  51.482   9.8570  0.00  0.00     0.000 OA
ENDBRANCH 59 68
BRANCH 62 72
ATOM     72   C  SGN B   4     -18.704  46.471  14.6290  0.00  0.00     0.000 C
ATOM     73   O  SGN B   4     -19.615  46.867  15.6100  0.00  0.00     0.000 O
ATOM     74  @S  SGN B   4     -20.694  46.005  16.2880  0.00  0.00     0.000 S
ATOM     75   O  SGN B   4     -20.037  44.912  16.9030  0.00  0.00     0.000 OA
ATOM     76   O  SGN B   4     -21.297  46.884  17.2440  0.00  0.00     0.000 OA
ATOM     77   O  SGN B   4     -21.558  45.570  15.2420  0.00  0.00     0.000 OA
ENDBRANCH 62 72
BRANCH 58 78
ATOM     78  O4  IDS B   5     -16.750  49.965  13.4230  0.00  0.00     0.000 O
BRANCH 78 82
ATOM     79  C1  IDS B   5     -16.416  52.758  15.4450  0.00  0.00     0.000 C
ATOM     80  C2  IDS B   5     -16.058  52.857  13.9940  0.00  0.00     0.000 C
ATOM     81  C3  IDS B   5     -15.126  51.748  13.5110  0.00  0.00     0.000 C
ATOM     82  C4  IDS B   5     -15.537  50.379  14.0140  0.00  0.00     0.000 C
ATOM     83  C5  IDS B   5     -15.733  50.482  15.4930  0.00  0.00     0.000 C
ATOM     84  O5  IDS B   5     -16.754  51.421  15.7710  0.00  0.00     0.000 O
ATOM     85   O  IDS B   5     -13.840  52.019  14.0140  0.00  0.00     0.000 O
ATOM     87  HD  IDS B   5     -14.307  51.293  14.0890  0.00  0.00     0.000 HD
BRANCH 80 87
ATOM     87   O  IDS B   5     -17.213  52.758  13.2580  0.00  0.00     0.000 O
ATOM     88  @S  IDS B   5     -17.726  53.749  12.2110  0.00  0.00     0.000 S
ATOM     89   O  IDS B   5     -16.648  53.921  11.3070  0.00  0.00     0.000 OA
ATOM     90   O  IDS B   5     -18.874  53.136  11.6420  0.00  0.00     0.000 OA
ATOM     91   O  IDS B   5     -18.052  54.936  12.9210  0.00  0.00     0.000 OA
ENDBRANCH 80 87
BRANCH 83 92
ATOM     92 @CA  IDS B   5     -15.968  49.140  16.1760  0.00  0.00     0.000 C
ATOM     93   O  IDS B   5     -15.154  48.221  16.0640  0.00  0.00     0.000 OA
ATOM     94   O  IDS B   5     -16.985  48.948  16.8520  0.00  0.00     0.000 OA
ENDBRANCH 83 92
BRANCH 79 95
ATOM     95  O4  SGN B   6     -15.365  53.237  16.2160  0.00  0.00     0.000 O
BRANCH 95 99
ATOM     96  C1  SGN B   6     -14.351  53.212  20.2390  0.00  0.00     0.000 C
ATOM     97  C2  SGN B   6     -14.346  51.857  19.5420  0.00  0.00     0.000 C
ATOM     98  C3  SGN B   6     -14.188  52.135  18.0470  0.00  0.00     0.000 C
ATOM     99  C4  SGN B   6     -15.454  52.917  17.5930  0.00  0.00     0.000 C
ATOM    100  C5  SGN B   6     -15.479  54.238  18.4150  0.00  0.00     0.000 C
ATOM    101  O5  SGN B   6     -15.462  53.979  19.8160  0.00  0.00     0.000 O
BRANCH 97 104
ATOM    102   N  SGN B   6     -14.593  51.272  20.8640  0.00  0.00     0.000 N
ATOM    104  HD  SGN B   6     -13.881  51.343  21.3510  0.00  0.00     0.000 HD
ATOM    104 @NS  SGN B   6     -13.708  49.936  21.2910  0.00  0.00     0.000 S
ATOM    105   O  SGN B   6     -12.800  49.644  20.2030  0.00  0.00     0.000 OA
ATOM    106   O  SGN B   6     -13.008  50.272  22.5090  0.00  0.00     0.000 OA
ATOM    107   O  SGN B   6     -14.663  48.867  21.4800  0.00  0.00     0.000 OA
ENDBRANCH 97 104
BRANCH 100 108
ATOM    108   C  SGN B   6     -16.671  55.155  18.1720  0.00  0.00     0.000 C
ATOM    109   O  SGN B   6     -17.843  54.530  18.6350  0.00  0.00     0.000 O
ATOM    110  @S  SGN B   6     -19.293  55.132  18.5690  0.00  0.00     0.000 S
ATOM    111   O  SGN B   6     -19.395  55.783  17.2850  0.00  0.00     0.000 OA
ATOM    112   O  SGN B   6     -20.209  54.008  18.6870  0.00  0.00     0.000 OA
ATOM    113   O  SGN B   6     -19.383  56.058  19.6740  0.00  0.00     0.000 OA
ENDBRANCH 100 108
ENDBRANCH 95 99
ENDBRANCH 79 95
ENDBRANCH 78 82
ENDBRANCH 58 78
ENDBRANCH 57 61
ENDBRANCH 41 57
ENDBRANCH 40 44
ENDBRANCH 20 40
ENDBRANCH 19 23
ENDBRANCH 1 19
TORSDOF 22
ENDMDL
MODEL 67
REMARK VINA RESULT:       3.4      2.899      6.378
ROOT
ATOM      1  C1  IDS B   1     -24.911  55.645  11.0100  0.00  0.00     0.000 C
ATOM      2  C2  IDS B   1     -25.175  54.674   9.8900  0.00  0.00     0.000 C
ATOM      3  C3  IDS B   1     -25.933  53.381  10.2750  0.00  0.00     0.000 C
ATOM      4  C4  IDS B   1     -26.891  53.554  11.5130  0.00  0.00     0.000 C
ATOM      5  C5  IDS B   1     -26.412  54.654  12.4900  0.00  0.00     0.000 C
ATOM      6  O5  IDS B   1     -26.083  55.819  11.7800  0.00  0.00     0.000 O
ATOM      7   O  IDS B   1     -24.955  52.376  10.5220  0.00  0.00     0.000 O
ATOM      9  HD  IDS B   1     -25.685  52.180  10.9460  0.00  0.00     0.000 HD
ATOM      9   O  IDS B   1     -28.160  53.929  11.0240  0.00  0.00     0.000 O
ATOM     11  HD  IDS B   1     -28.889  53.733  11.4480  0.00  0.00     0.000 HD
ENDROOT
BRANCH 2 11
ATOM     11   O  IDS B   1     -25.930  55.292   8.9050  0.00  0.00     0.000 O
ATOM     12  @S  IDS B   1     -25.478  55.467   7.4430  0.00  0.00     0.000 S
ATOM     13   O  IDS B   1     -24.032  55.475   7.5250  0.00  0.00     0.000 OA
ATOM     14   O  IDS B   1     -25.989  54.323   6.7090  0.00  0.00     0.000 OA
ATOM     15   O  IDS B   1     -26.052  56.722   6.9990  0.00  0.00     0.000 OA
ENDBRANCH 2 11
BRANCH 5 16
ATOM     16 @CA  IDS B   1     -27.351  55.001  13.6410  0.00  0.00     0.000 C
ATOM     17   O  IDS B   1     -27.647  56.164  13.9040  0.00  0.00     0.000 OA
ATOM     18   O  IDS B   1     -27.847  54.112  14.3300  0.00  0.00     0.000 OA
ENDBRANCH 5 16
BRANCH 1 19
ATOM     19  O4  SGN B   2     -23.862  55.126  11.8010  0.00  0.00     0.000 O
BRANCH 19 23
ATOM     20  C1  SGN B   2     -19.800  55.560  11.5340  0.00  0.00     0.000 C
ATOM     21  C2  SGN B   2     -20.684  56.714  11.1120  0.00  0.00     0.000 C
ATOM     22  C3  SGN B   2     -21.996  56.608  11.8010  0.00  0.00     0.000 C
ATOM     23  C4  SGN B   2     -22.595  55.319  11.2850  0.00  0.00     0.000 C
ATOM     24  C5  SGN B   2     -21.714  54.241  11.8140  0.00  0.00     0.000 C
ATOM     25  O5  SGN B   2     -20.465  54.342  11.2330  0.00  0.00     0.000 O
ATOM     26   O  SGN B   2     -22.791  57.685  11.4480  0.00  0.00     0.000 O
ATOM     28  HD  SGN B   2     -23.379  58.229  11.1180  0.00  0.00     0.000 HD
BRANCH 21 30
ATOM     28   N  SGN B   2     -19.712  57.048  10.1120  0.00  0.00     0.000 N
ATOM     30  HD  SGN B   2     -19.029  56.638  10.4510  0.00  0.00     0.000 HD
ATOM     30 @NS  SGN B   2     -18.935  58.465  10.2850  0.00  0.00     0.000 S
ATOM     31   O  SGN B   2     -19.288  59.044  11.5370  0.00  0.00     0.000 OA
ATOM     32   O  SGN B   2     -17.578  58.102  10.2490  0.00  0.00     0.000 OA
ATOM     33   O  SGN B   2     -19.355  59.281   9.2090  0.00  0.00     0.000 OA
ENDBRANCH 21 30
BRANCH 24 34
ATOM     34   C  SGN B   2     -22.189  52.856  11.5700  0.00  0.00     0.000 C
ATOM     35   O  SGN B   2     -21.244  52.223  10.7830  0.00  0.00     0.000 O
ATOM     36  @S  SGN B   2     -21.259  50.727  10.4910  0.00  0.00     0.000 S
ATOM     37   O  SGN B   2     -22.026  50.610   9.2670  0.00  0.00     0.000 OA
ATOM     38   O  SGN B   2     -19.881  50.316  10.3530  0.00  0.00     0.000 OA
ATOM     39   O  SGN B   2     -21.902  50.119  11.6490  0.00  0.00     0.000 OA
ENDBRANCH 24 34
BRANCH 20 40
ATOM     40  O4  IDS B   3     -19.496  55.649  12.8920  0.00  0.00     0.000 O
BRANCH 40 44
ATOM     41  C1  IDS B   3     -17.570  54.865  15.7170  0.00  0.00     0.000 C
ATOM     42  C2  IDS B   3     -18.247  56.229  15.5940  0.00  0.00     0.000 C
ATOM     43  C3  IDS B   3     -18.074  56.938  14.2370  0.00  0.00     0.000 C
ATOM     44  C4  IDS B   3     -18.155  55.947  13.0930  0.00  0.00     0.000 C
ATOM     45  C5  IDS B   3     -17.367  54.661  13.3860  0.00  0.00     0.000 C
ATOM     46  O5  IDS B   3     -17.812  54.082  14.5580  0.00  0.00     0.000 O
ATOM     47   O  IDS B   3     -16.809  57.564  14.1930  0.00  0.00     0.000 O
ATOM     49  HD  IDS B   3     -17.641  57.447  13.9830  0.00  0.00     0.000 HD
BRANCH 42 49
ATOM     49   O  IDS B   3     -19.620  56.064  15.8010  0.00  0.00     0.000 O
ATOM     50   O  IDS B   3     -19.323  56.100  18.1380  0.00  0.00     0.000 OA
ATOM     51   O  IDS B   3     -21.208  57.181  17.2000  0.00  0.00     0.000 OA
ATOM     52   O  IDS B   3     -21.038  54.827  17.1510  0.00  0.00     0.000 OA
ATOM     53  @S  IDS B   3     -20.340  56.047  17.1530  0.00  0.00     0.000 S
ENDBRANCH 42 49
BRANCH 45 54
ATOM     54 @CA  IDS B   3     -17.370  53.623  12.2660  0.00  0.00     0.000 C
ATOM     55   O  IDS B   3     -17.934  52.569  12.3840  0.00  0.00     0.000 OA
ATOM     56   O  IDS B   3     -16.832  53.833  11.2290  0.00  0.00     0.000 OA
ENDBRANCH 45 54
BRANCH 41 57
ATOM     57  O4  SGN B   4     -16.210  55.039  15.9440  0.00  0.00     0.000 O
BRANCH 57 61
ATOM     58  C1  SGN B   4     -15.368  51.173  17.1020  0.00  0.00     0.000 C
ATOM     59  C2  SGN B   4     -16.078  52.028  18.1380  0.00  0.00     0.000 C
ATOM     60  C3  SGN B   4     -16.669  53.266  17.4700  0.00  0.00     0.000 C
ATOM     61  C4  SGN B   4     -15.593  54.052  16.7120  0.00  0.00     0.000 C
ATOM     62  C5  SGN B   4     -14.884  53.084  15.7690  0.00  0.00     0.000 C
ATOM     63  O5  SGN B   4     -14.376  51.963  16.4690  0.00  0.00     0.000 O
ATOM     64   O  SGN B   4     -17.218  54.103  18.4670  0.00  0.00     0.000 O
ATOM     66  HD  SGN B   4     -16.884  54.899  18.5280  0.00  0.00     0.000 HD
BRANCH 59 68
ATOM     66   N  SGN B   4     -15.961  51.478  19.4730  0.00  0.00     0.000 N
ATOM     68  HD  SGN B   4     -15.465  51.549  18.7670  0.00  0.00     0.000 HD
ATOM     68 @NS  SGN B   4     -16.718  50.074  19.8520  0.00  0.00     0.000 S
ATOM     69   O  SGN B   4     -17.988  50.055  19.1870  0.00  0.00     0.000 OA
ATOM     70   O  SGN B   4     -15.867  49.021  19.3790  0.00  0.00     0.000 OA
ATOM     71   O  SGN B   4     -16.840  50.110  21.2780  0.00  0.00     0.000 OA
ENDBRANCH 59 68
BRANCH 62 72
ATOM     72   C  SGN B   4     -13.704  53.719  15.0480  0.00  0.00     0.000 C
ATOM     73   O  SGN B   4     -14.259  54.456  14.0000  0.00  0.00     0.000 O
ATOM     74  @S  SGN B   4     -13.718  55.756  13.3800  0.00  0.00     0.000 S
ATOM     75   O  SGN B   4     -12.410  55.487  12.9080  0.00  0.00     0.000 OA
ATOM     76   O  SGN B   4     -14.631  56.045  12.3160  0.00  0.00     0.000 OA
ATOM     77   O  SGN B   4     -13.702  56.712  14.4360  0.00  0.00     0.000 OA
ENDBRANCH 62 72
BRANCH 58 78
ATOM     78  O4  IDS B   5     -16.303  50.646  16.1820  0.00  0.00     0.000 O
BRANCH 78 82
ATOM     79  C1  IDS B   5     -18.277  48.887  13.9450  0.00  0.00     0.000 C
ATOM     80  C2  IDS B   5     -18.522  48.735  15.4150  0.00  0.00     0.000 C
ATOM     81  C3  IDS B   5     -17.262  48.432  16.2220  0.00  0.00     0.000 C
ATOM     82  C4  IDS B   5     -16.087  49.300  15.8190  0.00  0.00     0.000 C
ATOM     83  C5  IDS B   5     -15.956  49.217  14.3320  0.00  0.00     0.000 C
ATOM     84  O5  IDS B   5     -17.139  49.701  13.7250  0.00  0.00     0.000 O
ATOM     85   O  IDS B   5     -16.907  47.093  15.9780  0.00  0.00     0.000 O
ATOM     87  HD  IDS B   5     -16.419  47.803  15.8970  0.00  0.00     0.000 HD
BRANCH 80 87
ATOM     87   O  IDS B   5     -19.028  49.919  15.8920  0.00  0.00     0.000 O
ATOM     88  @S  IDS B   5     -20.437  50.167  16.4340  0.00  0.00     0.000 S
ATOM     89   O  IDS B   5     -20.626  49.180  17.4340  0.00  0.00     0.000 OA
ATOM     90   O  IDS B   5     -20.424  51.500  16.9240  0.00  0.00     0.000 OA
ATOM     91   O  IDS B   5     -21.316  50.015  15.3270  0.00  0.00     0.000 OA
ENDBRANCH 80 87
BRANCH 83 92
ATOM     92 @CA  IDS B   5     -14.700  49.889  13.7890  0.00  0.00     0.000 C
ATOM     93   O  IDS B   5     -13.580  49.551  14.1790  0.00  0.00     0.000 OA
ATOM     94   O  IDS B   5     -14.783  50.792  12.9480  0.00  0.00     0.000 OA
ENDBRANCH 83 92
BRANCH 79 95
ATOM     95  O4  SGN B   6     -18.146  47.633  13.3640  0.00  0.00     0.000 O
BRANCH 95 99
ATOM     96  C1  SGN B   6     -17.261  46.165   9.5860  0.00  0.00     0.000 C
ATOM     97  C2  SGN B   6     -16.268  47.170  10.1600  0.00  0.00     0.000 C
ATOM     98  C3  SGN B   6     -16.452  47.146  11.6780  0.00  0.00     0.000 C
ATOM     99  C4  SGN B   6     -17.892  47.654  11.9710  0.00  0.00     0.000 C
ATOM    100  C5  SGN B   6     -18.865  46.664  11.2680  0.00  0.00     0.000 C
ATOM    101  O5  SGN B   6     -18.587  46.563   9.8750  0.00  0.00     0.000 O
BRANCH 97 104
ATOM    102   N  SGN B   6     -15.881  47.814   8.9010  0.00  0.00     0.000 N
ATOM    104  HD  SGN B   6     -15.665  47.209   8.3200  0.00  0.00     0.000 HD
ATOM    104 @NS  SGN B   6     -14.311  47.628   8.3950  0.00  0.00     0.000 S
ATOM    105   O  SGN B   6     -13.636  46.786   9.3580  0.00  0.00     0.000 OA
ATOM    106   O  SGN B   6     -14.366  47.024   7.0840  0.00  0.00     0.000 OA
ATOM    107   O  SGN B   6     -13.741  48.957   8.3680  0.00  0.00     0.000 OA
ENDBRANCH 97 104
BRANCH 100 108
ATOM    108   C  SGN B   6     -20.349  46.991  11.3770  0.00  0.00     0.000 C
ATOM    109   O  SGN B   6     -21.079  46.140  10.5280  0.00  0.00     0.000 O
ATOM    110  @S  SGN B   6     -22.638  46.149  10.3370  0.00  0.00     0.000 S
ATOM    111   O  SGN B   6     -23.027  47.539  10.3160  0.00  0.00     0.000 OA
ATOM    112   O  SGN B   6     -22.900  45.489   9.0680  0.00  0.00     0.000 OA
ATOM    113   O  SGN B   6     -23.177  45.435  11.4720  0.00  0.00     0.000 OA
ENDBRANCH 100 108
ENDBRANCH 95 99
ENDBRANCH 79 95
ENDBRANCH 78 82
ENDBRANCH 58 78
ENDBRANCH 57 61
ENDBRANCH 41 57
ENDBRANCH 40 44
ENDBRANCH 20 40
ENDBRANCH 19 23
ENDBRANCH 1 19
TORSDOF 22
ENDMDL
MODEL 68
REMARK VINA RESULT:       3.5      3.858      6.477
ROOT
ATOM      1  C1  IDS B   1     -25.461  62.306   9.8370  0.00  0.00     0.000 C
ATOM      2  C2  IDS B   1     -26.796  61.765   9.3970  0.00  0.00     0.000 C
ATOM      3  C3  IDS B   1     -27.715  61.227  10.5200  0.00  0.00     0.000 C
ATOM      4  C4  IDS B   1     -27.480  61.917  11.9150  0.00  0.00     0.000 C
ATOM      5  C5  IDS B   1     -26.029  62.428  12.0910  0.00  0.00     0.000 C
ATOM      6  O5  IDS B   1     -25.632  63.150  10.9570  0.00  0.00     0.000 O
ATOM      7   O  IDS B   1     -27.502  59.821  10.6020  0.00  0.00     0.000 O
ATOM      9  HD  IDS B   1     -27.801  60.113  11.3600  0.00  0.00     0.000 HD
ATOM      9   O  IDS B   1     -28.345  63.027  11.9960  0.00  0.00     0.000 O
ATOM     11  HD  IDS B   1     -28.644  63.319  12.7540  0.00  0.00     0.000 HD
ENDROOT
BRANCH 2 11
ATOM     11   O  IDS B   1     -27.511  62.759   8.7480  0.00  0.00     0.000 O
ATOM     12  @S  IDS B   1     -28.940  62.587   8.1980  0.00  0.00     0.000 S
ATOM     13   O  IDS B   1     -29.041  61.166   7.9330  0.00  0.00     0.000 OA
ATOM     14   O  IDS B   1     -29.845  63.024   9.2460  0.00  0.00     0.000 OA
ATOM     15   O  IDS B   1     -29.010  63.417   7.0120  0.00  0.00     0.000 OA
ENDBRANCH 2 11
BRANCH 5 16
ATOM     16 @CA  IDS B   1     -25.741  63.243  13.3480  0.00  0.00     0.000 C
ATOM     17   O  IDS B   1     -26.647  63.670  14.0610  0.00  0.00     0.000 OA
ATOM     18   O  IDS B   1     -24.584  63.482  13.6860  0.00  0.00     0.000 OA
ENDBRANCH 5 16
BRANCH 1 19
ATOM     19  O4  SGN B   2     -24.628  61.211  10.1540  0.00  0.00     0.000 O
BRANCH 19 23
ATOM     20  C1  SGN B   2     -20.677  60.410   9.4450  0.00  0.00     0.000 C
ATOM     21  C2  SGN B   2     -21.048  61.737  10.0690  0.00  0.00     0.000 C
ATOM     22  C3  SGN B   2     -22.358  61.609  10.7600  0.00  0.00     0.000 C
ATOM     23  C4  SGN B   2     -23.342  61.294   9.6560  0.00  0.00     0.000 C
ATOM     24  C5  SGN B   2     -22.953  59.944   9.1590  0.00  0.00     0.000 C
ATOM     25  O5  SGN B   2     -21.713  60.017   8.5560  0.00  0.00     0.000 O
ATOM     26   O  SGN B   2     -22.680  62.811  11.3660  0.00  0.00     0.000 O
ATOM     28  HD  SGN B   2     -23.005  63.579  11.5980  0.00  0.00     0.000 HD
BRANCH 21 30
ATOM     28   N  SGN B   2     -19.788  62.005   9.4390  0.00  0.00     0.000 N
ATOM     30  HD  SGN B   2     -19.364  61.292   9.6880  0.00  0.00     0.000 HD
ATOM     30 @NS  SGN B   2     -18.728  62.914  10.2710  0.00  0.00     0.000 S
ATOM     31   O  SGN B   2     -19.236  63.146  11.5810  0.00  0.00     0.000 OA
ATOM     32   O  SGN B   2     -17.567  62.123  10.3000  0.00  0.00     0.000 OA
ATOM     33   O  SGN B   2     -18.597  64.125   9.5520  0.00  0.00     0.000 OA
ENDBRANCH 21 30
BRANCH 24 34
ATOM     34   C  SGN B   2     -23.878  59.342   8.1670  0.00  0.00     0.000 C
ATOM     35   O  SGN B   2     -24.629  58.384   8.8250  0.00  0.00     0.000 O
ATOM     36  @S  SGN B   2     -25.837  57.692   8.2040  0.00  0.00     0.000 S
ATOM     37   O  SGN B   2     -25.286  56.504   7.5820  0.00  0.00     0.000 OA
ATOM     38   O  SGN B   2     -26.753  57.407   9.2840  0.00  0.00     0.000 OA
ATOM     39   O  SGN B   2     -26.383  58.653   7.2570  0.00  0.00     0.000 OA
ENDBRANCH 24 34
BRANCH 20 40
ATOM     40  O4  IDS B   3     -20.463  59.449  10.4320  0.00  0.00     0.000 O
BRANCH 40 44
ATOM     41  C1  IDS B   3     -18.668  57.137  12.3650  0.00  0.00     0.000 C
ATOM     42  C2  IDS B   3     -17.987  58.395  11.8310  0.00  0.00     0.000 C
ATOM     43  C3  IDS B   3     -18.241  58.710  10.3440  0.00  0.00     0.000 C
ATOM     44  C4  IDS B   3     -19.676  58.406   9.9620  0.00  0.00     0.000 C
ATOM     45  C5  IDS B   3     -20.161  57.073  10.5520  0.00  0.00     0.000 C
ATOM     46  O5  IDS B   3     -20.017  57.075  11.9260  0.00  0.00     0.000 O
ATOM     47   O  IDS B   3     -17.392  57.913   9.5450  0.00  0.00     0.000 O
ATOM     49  HD  IDS B   3     -17.883  58.601   9.7360  0.00  0.00     0.000 HD
BRANCH 42 49
ATOM     49   O  IDS B   3     -18.442  59.494  12.5680  0.00  0.00     0.000 O
ATOM     50   O  IDS B   3     -16.545  59.408  13.9610  0.00  0.00     0.000 OA
ATOM     51   O  IDS B   3     -17.396  61.517  13.3030  0.00  0.00     0.000 OA
ATOM     52   O  IDS B   3     -18.622  60.146  14.7820  0.00  0.00     0.000 OA
ATOM     53  @S  IDS B   3     -17.705  60.185  13.7190  0.00  0.00     0.000 S
ENDBRANCH 42 49
BRANCH 45 54
ATOM     54 @CA  IDS B   3     -21.589  56.676  10.1850  0.00  0.00     0.000 C
ATOM     55   O  IDS B   3     -21.865  56.252   9.0950  0.00  0.00     0.000 OA
ATOM     56   O  IDS B   3     -22.472  56.751  10.9730  0.00  0.00     0.000 OA
ENDBRANCH 45 54
BRANCH 41 57
ATOM     57  O4  SGN B   4     -17.948  56.015  11.9720  0.00  0.00     0.000 O
BRANCH 57 61
ATOM     58  C1  SGN B   4     -19.439  53.146  14.5310  0.00  0.00     0.000 C
ATOM     59  C2  SGN B   4     -18.686  54.288  15.1920  0.00  0.00     0.000 C
ATOM     60  C3  SGN B   4     -18.538  55.447  14.2110  0.00  0.00     0.000 C
ATOM     61  C4  SGN B   4     -17.864  54.989  12.9120  0.00  0.00     0.000 C
ATOM     62  C5  SGN B   4     -18.641  53.787  12.3820  0.00  0.00     0.000 C
ATOM     63  O5  SGN B   4     -18.739  52.767  13.3570  0.00  0.00     0.000 O
ATOM     64   O  SGN B   4     -17.734  56.446  14.8050  0.00  0.00     0.000 O
ATOM     66  HD  SGN B   4     -17.000  56.647  14.3910  0.00  0.00     0.000 HD
BRANCH 59 68
ATOM     66   N  SGN B   4     -18.272  53.919  16.5310  0.00  0.00     0.000 N
ATOM     68  HD  SGN B   4     -18.376  53.529  15.7640  0.00  0.00     0.000 HD
ATOM     68 @NS  SGN B   4     -19.388  53.774  17.7240  0.00  0.00     0.000 S
ATOM     69   O  SGN B   4     -20.373  54.800  17.5450  0.00  0.00     0.000 OA
ATOM     70   O  SGN B   4     -19.963  52.468  17.5750  0.00  0.00     0.000 OA
ATOM     71   O  SGN B   4     -18.638  53.931  18.9320  0.00  0.00     0.000 OA
ENDBRANCH 59 68
BRANCH 62 72
ATOM     72   C  SGN B   4     -17.994  53.159  11.1570  0.00  0.00     0.000 C
ATOM     73   O  SGN B   4     -18.421  51.829  11.1480  0.00  0.00     0.000 O
ATOM     74  @S  SGN B   4     -18.661  50.931   9.9220  0.00  0.00     0.000 S
ATOM     75   O  SGN B   4     -17.444  50.867   9.2000  0.00  0.00     0.000 OA
ATOM     76   O  SGN B   4     -19.028  49.665  10.4810  0.00  0.00     0.000 OA
ATOM     77   O  SGN B   4     -19.681  51.573   9.1640  0.00  0.00     0.000 OA
ENDBRANCH 62 72
BRANCH 58 78
ATOM     78  O4  IDS B   5     -20.771  53.533  14.2600  0.00  0.00     0.000 O
BRANCH 78 82
ATOM     79  C1  IDS B   5     -24.197  54.029  14.1570  0.00  0.00     0.000 C
ATOM     80  C2  IDS B   5     -23.510  53.933  15.4850  0.00  0.00     0.000 C
ATOM     81  C3  IDS B   5     -22.593  52.720  15.6180  0.00  0.00     0.000 C
ATOM     82  C4  IDS B   5     -21.728  52.505  14.3930  0.00  0.00     0.000 C
ATOM     83  C5  IDS B   5     -22.627  52.526  13.1970  0.00  0.00     0.000 C
ATOM     84  O5  IDS B   5     -23.272  53.783  13.1130  0.00  0.00     0.000 O
ATOM     85   O  IDS B   5     -23.405  51.581  15.7730  0.00  0.00     0.000 O
ATOM     87  HD  IDS B   5     -22.775  51.720  15.1950  0.00  0.00     0.000 HD
BRANCH 80 87
ATOM     87   O  IDS B   5     -22.726  55.048  15.6460  0.00  0.00     0.000 O
ATOM     88  @S  IDS B   5     -23.144  56.387  16.2570  0.00  0.00     0.000 S
ATOM     89   O  IDS B   5     -23.696  56.059  17.5210  0.00  0.00     0.000 OA
ATOM     90   O  IDS B   5     -21.953  57.159  16.3240  0.00  0.00     0.000 OA
ATOM     91   O  IDS B   5     -24.094  56.949  15.3620  0.00  0.00     0.000 OA
ENDBRANCH 80 87
BRANCH 83 92
ATOM     92 @CA  IDS B   5     -21.930  52.136  11.8990  0.00  0.00     0.000 C
ATOM     93   O  IDS B   5     -21.487  50.997  11.7340  0.00  0.00     0.000 OA
ATOM     94   O  IDS B   5     -21.793  52.959  10.9860  0.00  0.00     0.000 OA
ENDBRANCH 83 92
BRANCH 79 95
ATOM     95  O4  SGN B   6     -25.271  53.150  14.1250  0.00  0.00     0.000 O
BRANCH 95 99
ATOM     96  C1  SGN B   6     -28.650  52.960  11.7240  0.00  0.00     0.000 C
ATOM     97  C2  SGN B   6     -27.524  51.996  11.3680  0.00  0.00     0.000 C
ATOM     98  C3  SGN B   6     -26.676  51.830  12.6300  0.00  0.00     0.000 C
ATOM     99  C4  SGN B   6     -26.053  53.220  12.9460  0.00  0.00     0.000 C
ATOM    100  C5  SGN B   6     -27.240  54.195  13.1870  0.00  0.00     0.000 C
ATOM    101  O5  SGN B   6     -28.123  54.227  12.0690  0.00  0.00     0.000 O
BRANCH 97 104
ATOM    102   N  SGN B   6     -27.325  50.756  10.6120  0.00  0.00     0.000 N
ATOM    104  HD  SGN B   6     -26.985  50.939   9.8370  0.00  0.00     0.000 HD
ATOM    104 @NS  SGN B   6     -28.203  50.556   9.2190  0.00  0.00     0.000 S
ATOM    105   O  SGN B   6     -29.001  51.748   9.0280  0.00  0.00     0.000 OA
ATOM    106   O  SGN B   6     -27.250  50.360   8.1510  0.00  0.00     0.000 OA
ATOM    107   O  SGN B   6     -29.037  49.395   9.4350  0.00  0.00     0.000 OA
ENDBRANCH 97 104
BRANCH 100 108
ATOM    108   C  SGN B   6     -26.869  55.646  13.4690  0.00  0.00     0.000 C
ATOM    109   O  SGN B   6     -27.989  56.466  13.2480  0.00  0.00     0.000 O
ATOM    110  @S  SGN B   6     -28.034  58.028  13.4180  0.00  0.00     0.000 S
ATOM    111   O  SGN B   6     -26.783  58.520  12.8920  0.00  0.00     0.000 OA
ATOM    112   O  SGN B   6     -29.174  58.493  12.6440  0.00  0.00     0.000 OA
ATOM    113   O  SGN B   6     -28.175  58.264  14.8370  0.00  0.00     0.000 OA
ENDBRANCH 100 108
ENDBRANCH 95 99
ENDBRANCH 79 95
ENDBRANCH 78 82
ENDBRANCH 58 78
ENDBRANCH 57 61
ENDBRANCH 41 57
ENDBRANCH 40 44
ENDBRANCH 20 40
ENDBRANCH 19 23
ENDBRANCH 1 19
TORSDOF 22
ENDMDL
MODEL 69
REMARK VINA RESULT:       3.5      5.025     10.714
ROOT
ATOM      1  C1  IDS B   1     -16.506  51.348  11.9090  0.00  0.00     0.000 C
ATOM      2  C2  IDS B   1     -15.623  52.363  11.2320  0.00  0.00     0.000 C
ATOM      3  C3  IDS B   1     -15.347  53.661  12.0270  0.00  0.00     0.000 C
ATOM      4  C4  IDS B   1     -15.406  53.472  13.5890  0.00  0.00     0.000 C
ATOM      5  C5  IDS B   1     -16.356  52.327  14.0160  0.00  0.00     0.000 C
ATOM      6  O5  IDS B   1     -16.101  51.179  13.2520  0.00  0.00     0.000 O
ATOM      7   O  IDS B   1     -16.294  54.632  11.5930  0.00  0.00     0.000 O
ATOM      9  HD  IDS B   1     -16.019  54.832  12.3900  0.00  0.00     0.000 HD
ATOM      9   O  IDS B   1     -14.107  53.147  14.0310  0.00  0.00     0.000 O
ATOM     11  HD  IDS B   1     -13.831  53.347  14.8270  0.00  0.00     0.000 HD
ENDROOT
BRANCH 2 11
ATOM     11   O  IDS B   1     -14.387  51.798  10.9620  0.00  0.00     0.000 O
ATOM     12  @S  IDS B   1     -13.927  51.334   9.5660  0.00  0.00     0.000 S
ATOM     13   O  IDS B   1     -15.165  51.022   8.8800  0.00  0.00     0.000 OA
ATOM     14   O  IDS B   1     -13.223  52.453   8.9660  0.00  0.00     0.000 OA
ATOM     15   O  IDS B   1     -13.071  50.187   9.7930  0.00  0.00     0.000 OA
ENDBRANCH 2 11
BRANCH 5 16
ATOM     16 @CA  IDS B   1     -16.367  51.967  15.4980  0.00  0.00     0.000 C
ATOM     17   O  IDS B   1     -17.225  52.404  16.2620  0.00  0.00     0.000 OA
ATOM     18   O  IDS B   1     -15.515  51.212  15.9630  0.00  0.00     0.000 OA
ENDBRANCH 5 16
BRANCH 1 19
ATOM     19  O4  SGN B   2     -17.838  51.813  11.8400  0.00  0.00     0.000 O
BRANCH 19 23
ATOM     20  C1  SGN B   2     -21.264  50.270  13.4650  0.00  0.00     0.000 C
ATOM     21  C2  SGN B   2     -20.568  51.406  14.1820  0.00  0.00     0.000 C
ATOM     22  C3  SGN B   2     -19.755  52.180  13.2070  0.00  0.00     0.000 C
ATOM     23  C4  SGN B   2     -18.714  51.200  12.7160  0.00  0.00     0.000 C
ATOM     24  C5  SGN B   2     -19.476  50.169  11.9570  0.00  0.00     0.000 C
ATOM     25  O5  SGN B   2     -20.284  49.463  12.8270  0.00  0.00     0.000 O
ATOM     26   O  SGN B   2     -19.150  53.244  13.8540  0.00  0.00     0.000 O
ATOM     28  HD  SGN B   2     -18.613  53.800  14.2430  0.00  0.00     0.000 HD
BRANCH 21 30
ATOM     28   N  SGN B   2     -20.997  50.833  15.4240  0.00  0.00     0.000 N
ATOM     30  HD  SGN B   2     -21.652  50.351  15.1260  0.00  0.00     0.000 HD
ATOM     30 @NS  SGN B   2     -22.050  51.698  16.3090  0.00  0.00     0.000 S
ATOM     31   O  SGN B   2     -22.465  52.837  15.5620  0.00  0.00     0.000 OA
ATOM     32   O  SGN B   2     -23.114  50.805  16.5220  0.00  0.00     0.000 OA
ATOM     33   O  SGN B   2     -21.360  52.082  17.4820  0.00  0.00     0.000 OA
ENDBRANCH 21 30
BRANCH 24 34
ATOM     34   C  SGN B   2     -18.649  49.170  11.2350  0.00  0.00     0.000 C
ATOM     35   O  SGN B   2     -18.214  48.240  12.1620  0.00  0.00     0.000 O
ATOM     36  @S  SGN B   2     -17.517  46.939  11.7830  0.00  0.00     0.000 S
ATOM     37   O  SGN B   2     -16.107  47.273  11.7960  0.00  0.00     0.000 OA
ATOM     38   O  SGN B   2     -17.889  45.962  12.7800  0.00  0.00     0.000 OA
ATOM     39   O  SGN B   2     -18.030  46.601  10.4630  0.00  0.00     0.000 OA
ENDBRANCH 24 34
BRANCH 20 40
ATOM     40  O4  IDS B   3     -22.189  50.766  12.5470  0.00  0.00     0.000 O
BRANCH 40 44
ATOM     41  C1  IDS B   3     -25.194  51.273  10.8100  0.00  0.00     0.000 C
ATOM     42  C2  IDS B   3     -24.461  52.450  11.4520  0.00  0.00     0.000 C
ATOM     43  C3  IDS B   3     -23.986  52.227  12.9010  0.00  0.00     0.000 C
ATOM     44  C4  IDS B   3     -23.465  50.817  13.0910  0.00  0.00     0.000 C
ATOM     45  C5  IDS B   3     -24.368  49.772  12.4170  0.00  0.00     0.000 C
ATOM     46  O5  IDS B   3     -24.511  50.056  11.0730  0.00  0.00     0.000 O
ATOM     47   O  IDS B   3     -25.071  52.422  13.7840  0.00  0.00     0.000 O
ATOM     49  HD  IDS B   3     -24.238  52.398  13.5480  0.00  0.00     0.000 HD
BRANCH 42 49
ATOM     49   O  IDS B   3     -23.327  52.739  10.6860  0.00  0.00     0.000 O
ATOM     50   O  IDS B   3     -23.589  55.046  11.0780  0.00  0.00     0.000 OA
ATOM     51   O  IDS B   3     -21.410  54.122  11.0600  0.00  0.00     0.000 OA
ATOM     52   O  IDS B   3     -22.665  54.253   9.0650  0.00  0.00     0.000 OA
ATOM     53  @S  IDS B   3     -22.709  54.122  10.4630  0.00  0.00     0.000 S
ENDBRANCH 42 49
BRANCH 45 54
ATOM     54 @CA  IDS B   3     -23.931  48.320  12.5920  0.00  0.00     0.000 C
ATOM     55   O  IDS B   3     -23.157  47.799  11.8350  0.00  0.00     0.000 OA
ATOM     56   O  IDS B   3     -24.324  47.661  13.4970  0.00  0.00     0.000 OA
ENDBRANCH 45 54
BRANCH 41 57
ATOM     57  O4  SGN B   4     -26.505  51.235  11.2680  0.00  0.00     0.000 O
BRANCH 57 61
ATOM     58  C1  SGN B   4     -30.177  49.671  10.2320  0.00  0.00     0.000 C
ATOM     59  C2  SGN B   4     -29.167  48.673  10.7730  0.00  0.00     0.000 C
ATOM     60  C3  SGN B   4     -28.030  49.414  11.4700  0.00  0.00     0.000 C
ATOM     61  C4  SGN B   4     -27.381  50.438  10.5320  0.00  0.00     0.000 C
ATOM     62  C5  SGN B   4     -28.488  51.329   9.9750  0.00  0.00     0.000 C
ATOM     63  O5  SGN B   4     -29.504  50.561   9.3570  0.00  0.00     0.000 O
ATOM     64   O  SGN B   4     -27.047  48.476  11.8600  0.00  0.00     0.000 O
ATOM     66  HD  SGN B   4     -26.257  48.586  11.5240  0.00  0.00     0.000 HD
BRANCH 59 68
ATOM     66   N  SGN B   4     -29.637  47.381  10.3170  0.00  0.00     0.000 N
ATOM     68  HD  SGN B   4     -29.712  48.209  10.0750  0.00  0.00     0.000 HD
ATOM     68 @NS  SGN B   4     -30.840  46.613  11.1250  0.00  0.00     0.000 S
ATOM     69   O  SGN B   4     -30.660  46.845  12.5270  0.00  0.00     0.000 OA
ATOM     70   O  SGN B   4     -32.067  47.189  10.6550  0.00  0.00     0.000 OA
ATOM     71   O  SGN B   4     -30.685  45.236  10.7670  0.00  0.00     0.000 OA
ENDBRANCH 59 68
BRANCH 62 72
ATOM     72   C  SGN B   4     -27.985  52.311   8.9270  0.00  0.00     0.000 C
ATOM     73   O  SGN B   4     -28.349  53.576   9.3950  0.00  0.00     0.000 O
ATOM     74  @S  SGN B   4     -27.606  54.905   9.1740  0.00  0.00     0.000 S
ATOM     75   O  SGN B   4     -27.514  55.110   7.7760  0.00  0.00     0.000 OA
ATOM     76   O  SGN B   4     -28.436  55.881   9.8130  0.00  0.00     0.000 OA
ATOM     77   O  SGN B   4     -26.319  54.733   9.7590  0.00  0.00     0.000 OA
ENDBRANCH 62 72
BRANCH 58 78
ATOM     78  O4  IDS B   5     -30.814  50.346  11.2970  0.00  0.00     0.000 O
BRANCH 78 82
ATOM     79  C1  IDS B   5     -32.937  51.690  13.6810  0.00  0.00     0.000 C
ATOM     80  C2  IDS B   5     -32.996  50.221  13.3930  0.00  0.00     0.000 C
ATOM     81  C3  IDS B   5     -33.104  49.888  11.9070  0.00  0.00     0.000 C
ATOM     82  C4  IDS B   5     -32.157  50.707  11.0540  0.00  0.00     0.000 C
ATOM     83  C5  IDS B   5     -32.344  52.144  11.4260  0.00  0.00     0.000 C
ATOM     84  O5  IDS B   5     -32.032  52.323  12.7940  0.00  0.00     0.000 O
ATOM     85   O  IDS B   5     -34.416  50.186  11.4950  0.00  0.00     0.000 O
ATOM     87  HD  IDS B   5     -33.668  50.460  11.1540  0.00  0.00     0.000 HD
BRANCH 80 87
ATOM     87   O  IDS B   5     -31.835  49.647  13.8480  0.00  0.00     0.000 O
ATOM     88  @S  IDS B   5     -31.667  48.769  15.0910  0.00  0.00     0.000 S
ATOM     89   O  IDS B   5     -32.634  47.741  14.9480  0.00  0.00     0.000 OA
ATOM     90   O  IDS B   5     -30.321  48.314  15.0520  0.00  0.00     0.000 OA
ATOM     91   O  IDS B   5     -31.912  49.615  16.2060  0.00  0.00     0.000 OA
ENDBRANCH 80 87
BRANCH 83 92
ATOM     92 @CA  IDS B   5     -31.593  53.114  10.5210  0.00  0.00     0.000 C
ATOM     93   O  IDS B   5     -30.936  54.044  10.9940  0.00  0.00     0.000 OA
ATOM     94   O  IDS B   5     -31.635  52.988   9.2910  0.00  0.00     0.000 OA
ENDBRANCH 83 92
BRANCH 79 95
ATOM     95  O4  SGN B   6     -34.214  52.230  13.6020  0.00  0.00     0.000 O
BRANCH 95 99
ATOM     96  C1  SGN B   6     -36.582  53.941  16.5480  0.00  0.00     0.000 C
ATOM     97  C2  SGN B   6     -35.125  53.697  16.9220  0.00  0.00     0.000 C
ATOM     98  C3  SGN B   6     -34.346  53.609  15.6100  0.00  0.00     0.000 C
ATOM     99  C4  SGN B   6     -34.875  52.360  14.8480  0.00  0.00     0.000 C
ATOM    100  C5  SGN B   6     -36.389  52.604  14.5910  0.00  0.00     0.000 C
ATOM    101  O5  SGN B   6     -37.090  52.848  15.8070  0.00  0.00     0.000 O
BRANCH 97 104
ATOM    102   N  SGN B   6     -34.166  54.229  17.8950  0.00  0.00     0.000 N
ATOM    104  HD  SGN B   6     -34.017  53.639  18.5100  0.00  0.00     0.000 HD
ATOM    104 @NS  SGN B   6     -34.695  54.458  19.4500  0.00  0.00     0.000 S
ATOM    105   O  SGN B   6     -36.072  54.018  19.5150  0.00  0.00     0.000 OA
ATOM    106   O  SGN B   6     -33.831  53.674  20.3030  0.00  0.00     0.000 OA
ATOM    107   O  SGN B   6     -34.584  55.876  19.7060  0.00  0.00     0.000 OA
ENDBRANCH 97 104
BRANCH 100 108
ATOM    108   C  SGN B   6     -37.140  51.477  13.8920  0.00  0.00     0.000 C
ATOM    109   O  SGN B   6     -36.455  50.266  14.0910  0.00  0.00     0.000 O
ATOM    110  @S  SGN B   6     -36.888  48.862  13.5330  0.00  0.00     0.000 S
ATOM    111   O  SGN B   6     -37.367  49.099  12.1920  0.00  0.00     0.000 OA
ATOM    112   O  SGN B   6     -35.696  48.028  13.5500  0.00  0.00     0.000 OA
ATOM    113   O  SGN B   6     -37.925  48.390  14.4220  0.00  0.00     0.000 OA
ENDBRANCH 100 108
ENDBRANCH 95 99
ENDBRANCH 79 95
ENDBRANCH 78 82
ENDBRANCH 58 78
ENDBRANCH 57 61
ENDBRANCH 41 57
ENDBRANCH 40 44
ENDBRANCH 20 40
ENDBRANCH 19 23
ENDBRANCH 1 19
TORSDOF 22
ENDMDL
MODEL 70
REMARK VINA RESULT:       3.6      5.156     10.772
ROOT
ATOM      1  C1  IDS B   1     -18.660  54.697  13.6880  0.00  0.00     0.000 C
ATOM      2  C2  IDS B   1     -17.276  54.182  13.9830  0.00  0.00     0.000 C
ATOM      3  C3  IDS B   1     -16.228  54.363  12.8590  0.00  0.00     0.000 C
ATOM      4  C4  IDS B   1     -16.509  55.599  11.9250  0.00  0.00     0.000 C
ATOM      5  C5  IDS B   1     -18.014  55.949  11.8340  0.00  0.00     0.000 C
ATOM      6  O5  IDS B   1     -18.579  55.987  13.1170  0.00  0.00     0.000 O
ATOM      7   O  IDS B   1     -16.200  53.153  12.1090  0.00  0.00     0.000 O
ATOM      9  HD  IDS B   1     -15.919  53.805  11.6150  0.00  0.00     0.000 HD
ATOM      9   O  IDS B   1     -15.838  56.712  12.4730  0.00  0.00     0.000 O
ATOM     11  HD  IDS B   1     -15.556  57.365  11.9790  0.00  0.00     0.000 HD
ENDROOT
BRANCH 2 11
ATOM     11   O  IDS B   1     -16.767  54.826  15.1000  0.00  0.00     0.000 O
ATOM     12  @S  IDS B   1     -17.053  54.405  16.5550  0.00  0.00     0.000 S
ATOM     13   O  IDS B   1     -18.338  53.741  16.4770  0.00  0.00     0.000 OA
ATOM     14   O  IDS B   1     -15.983  53.505  16.9450  0.00  0.00     0.000 OA
ATOM     15   O  IDS B   1     -17.066  55.632  17.3260  0.00  0.00     0.000 OA
ENDBRANCH 2 11
BRANCH 5 16
ATOM     16 @CA  IDS B   1     -18.374  57.222  11.0740  0.00  0.00     0.000 C
ATOM     17   O  IDS B   1     -17.597  58.171  11.0020  0.00  0.00     0.000 OA
ATOM     18   O  IDS B   1     -19.456  57.321  10.5000  0.00  0.00     0.000 OA
ENDBRANCH 5 16
BRANCH 1 19
ATOM     19  O4  SGN B   2     -19.283  53.792  12.8010  0.00  0.00     0.000 O
BRANCH 19 23
ATOM     20  C1  SGN B   2     -22.037  50.890  13.6680  0.00  0.00     0.000 C
ATOM     21  C2  SGN B   2     -21.741  51.945  14.7110  0.00  0.00     0.000 C
ATOM     22  C3  SGN B   2     -21.218  53.165  14.0440  0.00  0.00     0.000 C
ATOM     23  C4  SGN B   2     -19.918  52.726  13.4090  0.00  0.00     0.000 C
ATOM     24  C5  SGN B   2     -20.310  51.758  12.3470  0.00  0.00     0.000 C
ATOM     25  O5  SGN B   2     -20.851  50.629  12.9310  0.00  0.00     0.000 O
ATOM     26   O  SGN B   2     -20.985  54.146  14.9930  0.00  0.00     0.000 O
ATOM     28  HD  SGN B   2     -20.654  54.712  15.5580  0.00  0.00     0.000 HD
BRANCH 21 30
ATOM     28   N  SGN B   2     -22.209  50.839  15.4940  0.00  0.00     0.000 N
ATOM     30  HD  SGN B   2     -22.877  50.600  14.9980  0.00  0.00     0.000 HD
ATOM     30 @NS  SGN B   2     -23.241  51.177  16.7030  0.00  0.00     0.000 S
ATOM     31   O  SGN B   2     -23.603  52.553  16.6390  0.00  0.00     0.000 OA
ATOM     32   O  SGN B   2     -24.340  50.342  16.4420  0.00  0.00     0.000 OA
ATOM     33   O  SGN B   2     -22.553  50.886  17.9040  0.00  0.00     0.000 OA
ENDBRANCH 21 30
BRANCH 24 34
ATOM     34   C  SGN B   2     -19.206  51.298  11.4680  0.00  0.00     0.000 C
ATOM     35   O  SGN B   2     -19.568  50.066  10.9540  0.00  0.00     0.000 O
ATOM     36  @S  SGN B   2     -18.799  49.360   9.8430  0.00  0.00     0.000 S
ATOM     37   O  SGN B   2     -17.839  48.531  10.5440  0.00  0.00     0.000 OA
ATOM     38   O  SGN B   2     -19.768  48.606   9.0810  0.00  0.00     0.000 OA
ATOM     39   O  SGN B   2     -18.193  50.428   9.0600  0.00  0.00     0.000 OA
ENDBRANCH 24 34
BRANCH 20 40
ATOM     40  O4  IDS B   3     -23.071  51.307  12.8310  0.00  0.00     0.000 O
BRANCH 40 44
ATOM     41  C1  IDS B   3     -26.194  52.165  11.4830  0.00  0.00     0.000 C
ATOM     42  C2  IDS B   3     -25.422  53.161  12.3470  0.00  0.00     0.000 C
ATOM     43  C3  IDS B   3     -24.844  52.596  13.6590  0.00  0.00     0.000 C
ATOM     44  C4  IDS B   3     -24.306  51.194  13.4560  0.00  0.00     0.000 C
ATOM     45  C5  IDS B   3     -25.250  50.330  12.6060  0.00  0.00     0.000 C
ATOM     46  O5  IDS B   3     -25.489  50.936  11.3880  0.00  0.00     0.000 O
ATOM     47   O  IDS B   3     -25.864  52.542  14.6350  0.00  0.00     0.000 O
ATOM     49  HD  IDS B   3     -25.050  52.596  14.3430  0.00  0.00     0.000 HD
BRANCH 42 49
ATOM     49   O  IDS B   3     -24.346  53.656  11.6020  0.00  0.00     0.000 O
ATOM     50   O  IDS B   3     -25.649  53.674   9.6400  0.00  0.00     0.000 OA
ATOM     51   O  IDS B   3     -24.132  55.448  10.0310  0.00  0.00     0.000 OA
ATOM     52   O  IDS B   3     -23.331  53.279   9.5560  0.00  0.00     0.000 OA
ATOM     53  @S  IDS B   3     -24.368  54.041  10.1200  0.00  0.00     0.000 S
ENDBRANCH 42 49
BRANCH 45 54
ATOM     54 @CA  IDS B   3     -24.796  48.890  12.3830  0.00  0.00     0.000 C
ATOM     55   O  IDS B   3     -24.814  48.079  13.2690  0.00  0.00     0.000 OA
ATOM     56   O  IDS B   3     -24.430  48.516  11.3180  0.00  0.00     0.000 OA
ENDBRANCH 45 54
BRANCH 41 57
ATOM     57  O4  SGN B   4     -27.470  51.987  12.0050  0.00  0.00     0.000 O
BRANCH 57 61
ATOM     58  C1  SGN B   4     -31.312  51.302  10.6770  0.00  0.00     0.000 C
ATOM     59  C2  SGN B   4     -30.459  50.062  10.8860  0.00  0.00     0.000 C
ATOM     60  C3  SGN B   4     -29.237  50.411  11.7300  0.00  0.00     0.000 C
ATOM     61  C4  SGN B   4     -28.440  51.559  11.1000  0.00  0.00     0.000 C
ATOM     62  C5  SGN B   4     -29.405  52.715  10.8490  0.00  0.00     0.000 C
ATOM     63  O5  SGN B   4     -30.511  52.301  10.0690  0.00  0.00     0.000 O
ATOM     64   O  SGN B   4     -28.400  49.275  11.8110  0.00  0.00     0.000 O
ATOM     66  HD  SGN B   4     -27.598  49.365  11.4970  0.00  0.00     0.000 HD
BRANCH 59 68
ATOM     66   N  SGN B   4     -31.018  48.933  10.1700  0.00  0.00     0.000 N
ATOM     68  HD  SGN B   4     -30.954  49.790  10.0610  0.00  0.00     0.000 HD
ATOM     68 @NS  SGN B   4     -32.409  48.238  10.6910  0.00  0.00     0.000 S
ATOM     69   O  SGN B   4     -32.399  48.231  12.1240  0.00  0.00     0.000 OA
ATOM     70   O  SGN B   4     -33.476  49.049  10.1810  0.00  0.00     0.000 OA
ATOM     71   O  SGN B   4     -32.378  46.921  10.1310  0.00  0.00     0.000 OA
ENDBRANCH 59 68
BRANCH 62 72
ATOM     72   C  SGN B   4     -28.757  53.874  10.1070  0.00  0.00     0.000 C
ATOM     73   O  SGN B   4     -29.101  55.020  10.8290  0.00  0.00     0.000 O
ATOM     74  @S  SGN B   4     -28.276  56.309  10.9880  0.00  0.00     0.000 S
ATOM     75   O  SGN B   4     -28.042  56.823   9.6900  0.00  0.00     0.000 OA
ATOM     76   O  SGN B   4     -29.113  57.167  11.7700  0.00  0.00     0.000 OA
ATOM     77   O  SGN B   4     -27.060  55.916  11.6180  0.00  0.00     0.000 OA
ENDBRANCH 62 72
BRANCH 58 78
ATOM     78  O4  IDS B   5     -31.861  51.728  11.9070  0.00  0.00     0.000 O
BRANCH 78 82
ATOM     79  C1  IDS B   5     -33.706  52.796  14.6380  0.00  0.00     0.000 C
ATOM     80  C2  IDS B   5     -33.894  51.400  14.1270  0.00  0.00     0.000 C
ATOM     81  C3  IDS B   5     -34.130  51.321  12.6220  0.00  0.00     0.000 C
ATOM     82  C4  IDS B   5     -33.187  52.207  11.8340  0.00  0.00     0.000 C
ATOM     83  C5  IDS B   5     -33.239  53.573  12.4410  0.00  0.00     0.000 C
ATOM     84  O5  IDS B   5     -32.820  53.507  13.7910  0.00  0.00     0.000 O
ATOM     85   O  IDS B   5     -35.442  51.763  12.3680  0.00  0.00     0.000 O
ATOM     87  HD  IDS B   5     -34.701  52.042  12.0160  0.00  0.00     0.000 HD
BRANCH 80 87
ATOM     87   O  IDS B   5     -32.750  50.689  14.3910  0.00  0.00     0.000 O
ATOM     88  @S  IDS B   5     -32.543  49.654  15.5000  0.00  0.00     0.000 S
ATOM     89   O  IDS B   5     -33.605  48.728  15.3410  0.00  0.00     0.000 OA
ATOM     90   O  IDS B   5     -31.252  49.107  15.2710  0.00  0.00     0.000 OA
ATOM     91   O  IDS B   5     -32.609  50.373  16.7240  0.00  0.00     0.000 OA
ENDBRANCH 80 87
BRANCH 83 92
ATOM     92 @CA  IDS B   5     -32.484  54.629  11.6430  0.00  0.00     0.000 C
ATOM     93   O  IDS B   5     -32.523  54.640  10.4100  0.00  0.00     0.000 OA
ATOM     94   O  IDS B   5     -31.813  55.493  12.2190  0.00  0.00     0.000 OA
ENDBRANCH 83 92
BRANCH 79 95
ATOM     95  O4  SGN B   6     -34.941  53.420  14.7480  0.00  0.00     0.000 O
BRANCH 95 99
ATOM     96  C1  SGN B   6     -36.306  57.221  15.6980  0.00  0.00     0.000 C
ATOM     97  C2  SGN B   6     -35.383  57.127  14.4890  0.00  0.00     0.000 C
ATOM     98  C3  SGN B   6     -35.456  55.682  13.9950  0.00  0.00     0.000 C
ATOM     99  C4  SGN B   6     -34.880  54.784  15.1260  0.00  0.00     0.000 C
ATOM    100  C5  SGN B   6     -35.784  55.002  16.3720  0.00  0.00     0.000 C
ATOM    101  O5  SGN B   6     -35.845  56.378  16.7360  0.00  0.00     0.000 O
BRANCH 97 104
ATOM    102   N  SGN B   6     -35.985  58.385  14.0360  0.00  0.00     0.000 N
ATOM    104  HD  SGN B   6     -35.845  58.486  13.1880  0.00  0.00     0.000 HD
ATOM    104 @NS  SGN B   6     -34.966  59.565  13.4690  0.00  0.00     0.000 S
ATOM    105   O  SGN B   6     -33.618  59.041  13.5170  0.00  0.00     0.000 OA
ATOM    106   O  SGN B   6     -35.387  59.864  12.1190  0.00  0.00     0.000 OA
ATOM    107   O  SGN B   6     -35.125  60.692  14.3590  0.00  0.00     0.000 OA
ENDBRANCH 97 104
BRANCH 100 108
ATOM    108   C  SGN B   6     -35.378  54.252  17.6350  0.00  0.00     0.000 C
ATOM    109   O  SGN B   6     -35.244  55.164  18.6970  0.00  0.00     0.000 O
ATOM    110  @S  SGN B   6     -34.833  54.805  20.1710  0.00  0.00     0.000 S
ATOM    111   O  SGN B   6     -33.791  53.812  20.0610  0.00  0.00     0.000 OA
ATOM    112   O  SGN B   6     -34.354  56.037  20.7750  0.00  0.00     0.000 OA
ATOM    113   O  SGN B   6     -36.031  54.291  20.7970  0.00  0.00     0.000 OA
ENDBRANCH 100 108
ENDBRANCH 95 99
ENDBRANCH 79 95
ENDBRANCH 78 82
ENDBRANCH 58 78
ENDBRANCH 57 61
ENDBRANCH 41 57
ENDBRANCH 40 44
ENDBRANCH 20 40
ENDBRANCH 19 23
ENDBRANCH 1 19
TORSDOF 22
ENDMDL
MODEL 71
REMARK VINA RESULT:       3.6      2.154      2.866
ROOT
ATOM      1  C1  IDS B   1     -25.075  56.365  11.9740  0.00  0.00     0.000 C
ATOM      2  C2  IDS B   1     -25.453  56.909  10.6210  0.00  0.00     0.000 C
ATOM      3  C3  IDS B   1     -26.415  56.036   9.7810  0.00  0.00     0.000 C
ATOM      4  C4  IDS B   1     -27.372  55.135  10.6480  0.00  0.00     0.000 C
ATOM      5  C5  IDS B   1     -26.757  54.755  12.0170  0.00  0.00     0.000 C
ATOM      6  O5  IDS B   1     -26.229  55.895  12.6400  0.00  0.00     0.000 O
ATOM      7   O  IDS B   1     -25.614  55.242   8.9110  0.00  0.00     0.000 O
ATOM      9  HD  IDS B   1     -26.378  54.853   9.0370  0.00  0.00     0.000 HD
ATOM      9   O  IDS B   1     -28.551  55.870  10.8900  0.00  0.00     0.000 O
ATOM     11  HD  IDS B   1     -29.315  55.482  11.0150  0.00  0.00     0.000 HD
ENDROOT
BRANCH 2 11
ATOM     11   O  IDS B   1     -26.071  58.141  10.7710  0.00  0.00     0.000 O
ATOM     12  @S  IDS B   1     -25.439  59.488  10.3700  0.00  0.00     0.000 S
ATOM     13   O  IDS B   1     -24.014  59.243  10.4630  0.00  0.00     0.000 OA
ATOM     14   O  IDS B   1     -25.870  59.762   9.0100  0.00  0.00     0.000 OA
ATOM     15   O  IDS B   1     -25.937  60.458  11.3240  0.00  0.00     0.000 OA
ENDBRANCH 2 11
BRANCH 5 16
ATOM     16 @CA  IDS B   1     -27.666  54.010  12.9890  0.00  0.00     0.000 C
ATOM     17   O  IDS B   1     -28.738  53.529  12.6300  0.00  0.00     0.000 OA
ATOM     18   O  IDS B   1     -27.334  53.861  14.1630  0.00  0.00     0.000 OA
ENDBRANCH 5 16
BRANCH 1 19
ATOM     19  O4  SGN B   2     -24.145  55.320  11.7800  0.00  0.00     0.000 O
BRANCH 19 23
ATOM     20  C1  SGN B   2     -20.105  55.058  12.3840  0.00  0.00     0.000 C
ATOM     21  C2  SGN B   2     -20.960  55.698  13.4560  0.00  0.00     0.000 C
ATOM     22  C3  SGN B   2     -22.353  55.192  13.3450  0.00  0.00     0.000 C
ATOM     23  C4  SGN B   2     -22.825  55.670  11.9910  0.00  0.00     0.000 C
ATOM     24  C5  SGN B   2     -21.991  54.931  11.0020  0.00  0.00     0.000 C
ATOM     25  O5  SGN B   2     -20.676  55.340  11.1140  0.00  0.00     0.000 O
ATOM     26   O  SGN B   2     -23.126  55.745  14.3500  0.00  0.00     0.000 O
ATOM     28  HD  SGN B   2     -23.681  56.200  14.8360  0.00  0.00     0.000 HD
BRANCH 21 30
ATOM     28   N  SGN B   2     -20.340  55.409  14.7160  0.00  0.00     0.000 N
ATOM     30  HD  SGN B   2     -20.905  55.812  15.2340  0.00  0.00     0.000 HD
ATOM     30 @NS  SGN B   2     -19.174  56.426  15.2140  0.00  0.00     0.000 S
ATOM     31   O  SGN B   2     -19.106  57.534  14.3210  0.00  0.00     0.000 OA
ATOM     32   O  SGN B   2     -19.603  56.819  16.4930  0.00  0.00     0.000 OA
ATOM     33   O  SGN B   2     -17.970  55.685  15.1990  0.00  0.00     0.000 OA
ENDBRANCH 21 30
BRANCH 24 34
ATOM     34   C  SGN B   2     -22.377  55.115   9.5810  0.00  0.00     0.000 C
ATOM     35   O  SGN B   2     -22.291  56.466   9.2970  0.00  0.00     0.000 O
ATOM     36  @S  SGN B   2     -22.401  57.037   7.8870  0.00  0.00     0.000 S
ATOM     37   O  SGN B   2     -23.812  57.325   7.7290  0.00  0.00     0.000 OA
ATOM     38   O  SGN B   2     -21.562  58.212   7.8490  0.00  0.00     0.000 OA
ATOM     39   O  SGN B   2     -21.913  55.982   7.0100  0.00  0.00     0.000 OA
ENDBRANCH 24 34
BRANCH 20 40
ATOM     40  O4  IDS B   3     -20.001  53.684  12.5990  0.00  0.00     0.000 O
BRANCH 40 44
ATOM     41  C1  IDS B   3     -18.516  50.607  13.3960  0.00  0.00     0.000 C
ATOM     42  C2  IDS B   3     -18.109  51.880  14.1360  0.00  0.00     0.000 C
ATOM     43  C3  IDS B   3     -17.824  53.106  13.2470  0.00  0.00     0.000 C
ATOM     44  C4  IDS B   3     -18.807  53.182  12.0960  0.00  0.00     0.000 C
ATOM     45  C5  IDS B   3     -19.044  51.809  11.4480  0.00  0.00     0.000 C
ATOM     46  O5  IDS B   3     -19.478  50.900  12.3930  0.00  0.00     0.000 O
ATOM     47   O  IDS B   3     -16.522  53.003  12.7110  0.00  0.00     0.000 O
ATOM     49  HD  IDS B   3     -17.236  53.412  12.9810  0.00  0.00     0.000 HD
BRANCH 42 49
ATOM     49   O  IDS B   3     -19.142  52.235  15.0100  0.00  0.00     0.000 O
ATOM     50   O  IDS B   3     -17.958  51.357  16.8470  0.00  0.00     0.000 OA
ATOM     51   O  IDS B   3     -19.184  53.363  17.1200  0.00  0.00     0.000 OA
ATOM     52   O  IDS B   3     -20.310  51.316  16.7860  0.00  0.00     0.000 OA
ATOM     53  @S  IDS B   3     -19.146  52.061  16.5310  0.00  0.00     0.000 S
ENDBRANCH 42 49
BRANCH 45 54
ATOM     54 @CA  IDS B   3     -19.999  51.806  10.2550  0.00  0.00     0.000 C
ATOM     55   O  IDS B   3     -21.141  51.452  10.3630  0.00  0.00     0.000 OA
ATOM     56   O  IDS B   3     -19.648  52.175   9.1840  0.00  0.00     0.000 OA
ENDBRANCH 45 54
BRANCH 41 57
ATOM     57  O4  SGN B   4     -17.387  49.998  12.8620  0.00  0.00     0.000 O
BRANCH 57 61
ATOM     58  C1  SGN B   4     -18.700  46.224  13.8780  0.00  0.00     0.000 C
ATOM     59  C2  SGN B   4     -17.756  46.880  14.8720  0.00  0.00     0.000 C
ATOM     60  C3  SGN B   4     -17.664  48.376  14.5870  0.00  0.00     0.000 C
ATOM     61  C4  SGN B   4     -17.246  48.638  13.1360  0.00  0.00     0.000 C
ATOM     62  C5  SGN B   4     -18.198  47.864  12.2280  0.00  0.00     0.000 C
ATOM     63  O5  SGN B   4     -18.230  46.491  12.5680  0.00  0.00     0.000 O
ATOM     64   O  SGN B   4     -16.693  48.943  15.4430  0.00  0.00     0.000 O
ATOM     66  HD  SGN B   4     -16.019  49.328  15.0590  0.00  0.00     0.000 HD
BRANCH 59 68
ATOM     66   N  SGN B   4     -17.400  45.614  15.4780  0.00  0.00     0.000 N
ATOM     68  HD  SGN B   4     -17.876  45.890  14.8090  0.00  0.00     0.000 HD
ATOM     68 @NS  SGN B   4     -18.094  45.157  16.8920  0.00  0.00     0.000 S
ATOM     69   O  SGN B   4     -18.240  46.320  17.7170  0.00  0.00     0.000 OA
ATOM     70   O  SGN B   4     -19.369  44.597  16.5490  0.00  0.00     0.000 OA
ATOM     71   O  SGN B   4     -17.182  44.200  17.4410  0.00  0.00     0.000 OA
ENDBRANCH 59 68
BRANCH 62 72
ATOM     72   C  SGN B   4     -17.809  47.942  10.7590  0.00  0.00     0.000 C
ATOM     73   O  SGN B   4     -16.444  47.646  10.7180  0.00  0.00     0.000 O
ATOM     74  @S  SGN B   4     -15.672  46.949   9.5850  0.00  0.00     0.000 S
ATOM     75   O  SGN B   4     -15.854  47.720   8.4110  0.00  0.00     0.000 OA
ATOM     76   O  SGN B   4     -14.312  46.954  10.0320  0.00  0.00     0.000 OA
ATOM     77   O  SGN B   4     -16.257  45.657   9.4530  0.00  0.00     0.000 OA
ENDBRANCH 62 72
BRANCH 58 78
ATOM     78  O4  IDS B   5     -20.019  46.689  14.0790  0.00  0.00     0.000 O
BRANCH 78 82
ATOM     79  C1  IDS B   5     -23.402  47.236  14.5810  0.00  0.00     0.000 C
ATOM     80  C2  IDS B   5     -22.634  46.430  15.5840  0.00  0.00     0.000 C
ATOM     81  C3  IDS B   5     -21.795  45.315  14.9650  0.00  0.00     0.000 C
ATOM     82  C4  IDS B   5     -21.033  45.769  13.7360  0.00  0.00     0.000 C
ATOM     83  C5  IDS B   5     -22.009  46.446  12.8270  0.00  0.00     0.000 C
ATOM     84  O5  IDS B   5     -22.570  47.566  13.4840  0.00  0.00     0.000 O
ATOM     85   O  IDS B   5     -22.670  44.287  14.5680  0.00  0.00     0.000 O
ATOM     87  HD  IDS B   5     -22.074  44.700  14.0950  0.00  0.00     0.000 HD
BRANCH 80 87
ATOM     87   O  IDS B   5     -21.766  47.269  16.2360  0.00  0.00     0.000 O
ATOM     88  @S  IDS B   5     -21.722  47.563  17.7380  0.00  0.00     0.000 S
ATOM     89   O  IDS B   5     -21.647  46.291  18.3600  0.00  0.00     0.000 OA
ATOM     90   O  IDS B   5     -20.572  48.376  17.9300  0.00  0.00     0.000 OA
ATOM     91   O  IDS B   5     -22.924  48.260  18.0370  0.00  0.00     0.000 OA
ENDBRANCH 80 87
BRANCH 83 92
ATOM     92 @CA  IDS B   5     -21.432  46.795  11.4600  0.00  0.00     0.000 C
ATOM     93   O  IDS B   5     -21.466  47.952  11.0340  0.00  0.00     0.000 OA
ATOM     94   O  IDS B   5     -20.923  45.920  10.7490  0.00  0.00     0.000 OA
ENDBRANCH 83 92
BRANCH 79 95
ATOM     95  O4  SGN B   6     -24.534  46.533  14.1900  0.00  0.00     0.000 O
BRANCH 95 99
ATOM     96  C1  SGN B   6     -28.173  48.425  13.5670  0.00  0.00     0.000 C
ATOM     97  C2  SGN B   6     -27.784  47.372  12.5350  0.00  0.00     0.000 C
ATOM     98  C3  SGN B   6     -26.768  46.453  13.2130  0.00  0.00     0.000 C
ATOM     99  C4  SGN B   6     -25.514  47.316  13.5320  0.00  0.00     0.000 C
ATOM    100  C5  SGN B   6     -25.985  48.444  14.4940  0.00  0.00     0.000 C
ATOM    101  O5  SGN B   6     -27.047  49.203  13.9250  0.00  0.00     0.000 O
BRANCH 97 104
ATOM    102   N  SGN B   6     -29.216  47.274  12.2380  0.00  0.00     0.000 N
ATOM    104  HD  SGN B   6     -29.381  46.519  11.8470  0.00  0.00     0.000 HD
ATOM    104 @NS  SGN B   6     -29.667  47.212  10.6420  0.00  0.00     0.000 S
ATOM    105   O  SGN B   6     -28.460  47.236   9.8440  0.00  0.00     0.000 OA
ATOM    106   O  SGN B   6     -30.413  45.987  10.4680  0.00  0.00     0.000 OA
ATOM    107   O  SGN B   6     -30.474  48.389  10.4090  0.00  0.00     0.000 OA
ENDBRANCH 97 104
BRANCH 100 108
ATOM    108   C  SGN B   6     -24.923  49.456  14.9100  0.00  0.00     0.000 C
ATOM    109   O  SGN B   6     -25.505  50.425  15.7460  0.00  0.00     0.000 O
ATOM    110  @S  SGN B   6     -24.760  51.650  16.3900  0.00  0.00     0.000 S
ATOM    111   O  SGN B   6     -23.869  52.153  15.3720  0.00  0.00     0.000 OA
ATOM    112   O  SGN B   6     -25.788  52.616  16.7440  0.00  0.00     0.000 OA
ATOM    113   O  SGN B   6     -24.056  51.122  17.5370  0.00  0.00     0.000 OA
ENDBRANCH 100 108
ENDBRANCH 95 99
ENDBRANCH 79 95
ENDBRANCH 78 82
ENDBRANCH 58 78
ENDBRANCH 57 61
ENDBRANCH 41 57
ENDBRANCH 40 44
ENDBRANCH 20 40
ENDBRANCH 19 23
ENDBRANCH 1 19
TORSDOF 22
ENDMDL
MODEL 72
REMARK VINA RESULT:       3.7      2.459      9.069
ROOT
ATOM      1  C1  IDS B   1     -21.747  46.884  14.4050  0.00  0.00     0.000 C
ATOM      2  C2  IDS B   1     -22.760  46.363  13.4200  0.00  0.00     0.000 C
ATOM      3  C3  IDS B   1     -23.902  45.501  14.0090  0.00  0.00     0.000 C
ATOM      4  C4  IDS B   1     -24.252  45.851  15.5040  0.00  0.00     0.000 C
ATOM      5  C5  IDS B   1     -23.040  46.415  16.2840  0.00  0.00     0.000 C
ATOM      6  O5  IDS B   1     -22.408  47.418  15.5340  0.00  0.00     0.000 O
ATOM      7   O  IDS B   1     -23.512  44.137  13.8810  0.00  0.00     0.000 O
ATOM      9  HD  IDS B   1     -24.086  44.215  14.5250  0.00  0.00     0.000 HD
ATOM      9   O  IDS B   1     -25.257  46.839  15.4890  0.00  0.00     0.000 O
ATOM     11  HD  IDS B   1     -25.832  46.916  16.1330  0.00  0.00     0.000 HD
ENDROOT
BRANCH 2 11
ATOM     11   O  IDS B   1     -23.367  47.425  12.7690  0.00  0.00     0.000 O
ATOM     12  @S  IDS B   1     -23.391  47.612  11.2390  0.00  0.00     0.000 S
ATOM     13   O  IDS B   1     -22.207  46.911  10.7860  0.00  0.00     0.000 OA
ATOM     14   O  IDS B   1     -24.618  46.997  10.7650  0.00  0.00     0.000 OA
ATOM     15   O  IDS B   1     -23.355  49.043  11.0150  0.00  0.00     0.000 OA
ENDBRANCH 2 11
BRANCH 5 16
ATOM     16 @CA  IDS B   1     -23.314  46.924  17.6960  0.00  0.00     0.000 C
ATOM     17   O  IDS B   1     -23.099  46.228  18.6850  0.00  0.00     0.000 OA
ATOM     18   O  IDS B   1     -23.749  48.059  17.8760  0.00  0.00     0.000 OA
ENDBRANCH 5 16
BRANCH 1 19
ATOM     19  O4  SGN B   2     -20.905  45.811  14.7750  0.00  0.00     0.000 O
BRANCH 19 23
ATOM     20  C1  SGN B   2     -17.323  47.693  14.1560  0.00  0.00     0.000 C
ATOM     21  C2  SGN B   2     -17.849  46.761  13.0860  0.00  0.00     0.000 C
ATOM     22  C3  SGN B   2     -19.327  46.658  13.2030  0.00  0.00     0.000 C
ATOM     23  C4  SGN B   2     -19.558  46.028  14.5580  0.00  0.00     0.000 C
ATOM     24  C5  SGN B   2     -19.091  47.041  15.5450  0.00  0.00     0.000 C
ATOM     25  O5  SGN B   2     -17.724  47.202  15.4270  0.00  0.00     0.000 O
ATOM     26   O  SGN B   2     -19.814  45.839  12.2000  0.00  0.00     0.000 O
ATOM     28  HD  SGN B   2     -20.137  45.199  11.7150  0.00  0.00     0.000 HD
BRANCH 21 30
ATOM     28   N  SGN B   2     -16.505  46.374  12.7710  0.00  0.00     0.000 N
ATOM     30  HD  SGN B   2     -16.088  47.039  13.1360  0.00  0.00     0.000 HD
ATOM     30 @NS  SGN B   2     -15.930  46.823  11.3190  0.00  0.00     0.000 S
ATOM     31   O  SGN B   2     -16.874  47.680  10.6850  0.00  0.00     0.000 OA
ATOM     32   O  SGN B   2     -14.742  47.506  11.6310  0.00  0.00     0.000 OA
ATOM     33   O  SGN B   2     -15.746  45.631  10.5800  0.00  0.00     0.000 OA
ENDBRANCH 21 30
BRANCH 24 34
ATOM     34   C  SGN B   2     -19.363  46.715  16.9670  0.00  0.00     0.000 C
ATOM     35   O  SGN B   2     -18.634  47.598  17.7440  0.00  0.00     0.000 O
ATOM     36  @S  SGN B   2     -18.807  47.729  19.2530  0.00  0.00     0.000 S
ATOM     37   O  SGN B   2     -17.839  46.801  19.8040  0.00  0.00     0.000 OA
ATOM     38   O  SGN B   2     -18.538  49.109  19.5830  0.00  0.00     0.000 OA
ATOM     39   O  SGN B   2     -20.191  47.360  19.5130  0.00  0.00     0.000 OA
ENDBRANCH 24 34
BRANCH 20 40
ATOM     40  O4  IDS B   3     -17.787  48.991  13.9440  0.00  0.00     0.000 O
BRANCH 40 44
ATOM     41  C1  IDS B   3     -17.186  52.413  13.4590  0.00  0.00     0.000 C
ATOM     42  C2  IDS B   3     -16.077  51.389  13.2210  0.00  0.00     0.000 C
ATOM     43  C3  IDS B   3     -15.901  50.329  14.3260  0.00  0.00     0.000 C
ATOM     44  C4  IDS B   3     -17.244  49.879  14.8640  0.00  0.00     0.000 C
ATOM     45  C5  IDS B   3     -18.203  51.059  15.0870  0.00  0.00     0.000 C
ATOM     46  O5  IDS B   3     -18.368  51.771  13.9150  0.00  0.00     0.000 O
ATOM     47   O  IDS B   3     -15.160  50.884  15.3920  0.00  0.00     0.000 O
ATOM     49  HD  IDS B   3     -15.465  50.251  14.8860  0.00  0.00     0.000 HD
BRANCH 42 49
ATOM     49   O  IDS B   3     -16.351  50.704  12.0330  0.00  0.00     0.000 O
ATOM     50   O  IDS B   3     -15.503  52.488  10.7500  0.00  0.00     0.000 OA
ATOM     51   O  IDS B   3     -15.064  50.265  10.0640  0.00  0.00     0.000 OA
ATOM     52   O  IDS B   3     -17.254  51.139   9.9450  0.00  0.00     0.000 OA
ATOM     53  @S  IDS B   3     -16.019  51.176  10.6150  0.00  0.00     0.000 S
ENDBRANCH 42 49
BRANCH 45 54
ATOM     54 @CA  IDS B   3     -19.570  50.691  15.6620  0.00  0.00     0.000 C
ATOM     55   O  IDS B   3     -19.771  50.672  16.8460  0.00  0.00     0.000 OA
ATOM     56   O  IDS B   3     -20.487  50.434  14.9550  0.00  0.00     0.000 OA
ENDBRANCH 45 54
BRANCH 41 57
ATOM     57  O4  SGN B   4     -16.746  53.377  14.3570  0.00  0.00     0.000 O
BRANCH 57 61
ATOM     58  C1  SGN B   4     -19.519  56.230  13.2790  0.00  0.00     0.000 C
ATOM     59  C2  SGN B   4     -18.293  56.137  12.3860  0.00  0.00     0.000 C
ATOM     60  C3  SGN B   4     -17.563  54.822  12.6470  0.00  0.00     0.000 C
ATOM     61  C4  SGN B   4     -17.209  54.672  14.1310  0.00  0.00     0.000 C
ATOM     62  C5  SGN B   4     -18.488  54.873  14.9400  0.00  0.00     0.000 C
ATOM     63  O5  SGN B   4     -19.104  56.109  14.6280  0.00  0.00     0.000 O
ATOM     64   O  SGN B   4     -16.366  54.811  11.8970  0.00  0.00     0.000 O
ATOM     66  HD  SGN B   4     -15.630  54.741  12.3480  0.00  0.00     0.000 HD
BRANCH 59 68
ATOM     66   N  SGN B   4     -18.162  57.363  11.6260  0.00  0.00     0.000 N
ATOM     68  HD  SGN B   4     -18.457  57.123  12.4040  0.00  0.00     0.000 HD
ATOM     68 @NS  SGN B   4     -19.182  57.667  10.3780  0.00  0.00     0.000 S
ATOM     69   O  SGN B   4     -19.436  56.434   9.6940  0.00  0.00     0.000 OA
ATOM     70   O  SGN B   4     -20.380  58.196  10.9630  0.00  0.00     0.000 OA
ATOM     71   O  SGN B   4     -18.478  58.615   9.5680  0.00  0.00     0.000 OA
ENDBRANCH 59 68
BRANCH 62 72
ATOM     72   C  SGN B   4     -18.244  54.873  16.4410  0.00  0.00     0.000 C
ATOM     73   O  SGN B   4     -19.375  55.468  17.0040  0.00  0.00     0.000 O
ATOM     74  @S  SGN B   4     -20.001  55.174  18.3780  0.00  0.00     0.000 S
ATOM     75   O  SGN B   4     -19.008  55.418  19.3570  0.00  0.00     0.000 OA
ATOM     76   O  SGN B   4     -21.093  56.096  18.4710  0.00  0.00     0.000 OA
ATOM     77   O  SGN B   4     -20.375  53.800  18.3490  0.00  0.00     0.000 OA
ENDBRANCH 62 72
BRANCH 58 78
ATOM     78  O4  IDS B   5     -20.462  55.242  12.9160  0.00  0.00     0.000 O
BRANCH 78 82
ATOM     79  C1  IDS B   5     -23.095  53.372  11.6640  0.00  0.00     0.000 C
ATOM     80  C2  IDS B   5     -22.444  54.399  10.7880  0.00  0.00     0.000 C
ATOM     81  C3  IDS B   5     -22.301  55.769  11.4460  0.00  0.00     0.000 C
ATOM     82  C4  IDS B   5     -21.802  55.683  12.8740  0.00  0.00     0.000 C
ATOM     83  C5  IDS B   5     -22.659  54.690  13.5920  0.00  0.00     0.000 C
ATOM     84  O5  IDS B   5     -22.543  53.426  12.9670  0.00  0.00     0.000 O
ATOM     85   O  IDS B   5     -23.575  56.366  11.4750  0.00  0.00     0.000 O
ATOM     87  HD  IDS B   5     -23.025  56.238  12.1310  0.00  0.00     0.000 HD
BRANCH 80 87
ATOM     87   O  IDS B   5     -21.177  53.965  10.4870  0.00  0.00     0.000 O
ATOM     88  @S  IDS B   5     -20.729  53.236   9.2180  0.00  0.00     0.000 S
ATOM     89   O  IDS B   5     -21.175  54.053   8.1480  0.00  0.00     0.000 OA
ATOM     90   O  IDS B   5     -19.316  53.130   9.3220  0.00  0.00     0.000 OA
ATOM     91   O  IDS B   5     -21.364  51.965   9.2510  0.00  0.00     0.000 OA
ENDBRANCH 80 87
BRANCH 83 92
ATOM     92 @CA  IDS B   5     -22.400  54.629  15.0930  0.00  0.00     0.000 C
ATOM     93   O  IDS B   5     -21.861  53.646  15.6040  0.00  0.00     0.000 OA
ATOM     94   O  IDS B   5     -22.733  55.567  15.8270  0.00  0.00     0.000 OA
ENDBRANCH 83 92
BRANCH 79 95
ATOM     95  O4  SGN B   6     -24.470  53.569  11.6670  0.00  0.00     0.000 O
BRANCH 95 99
ATOM     96  C1  SGN B   6     -27.832  51.153  11.4080  0.00  0.00     0.000 C
ATOM     97  C2  SGN B   6     -26.797  50.745  12.4500  0.00  0.00     0.000 C
ATOM     98  C3  SGN B   6     -25.977  51.997  12.7650  0.00  0.00     0.000 C
ATOM     99  C4  SGN B   6     -25.232  52.394  11.4580  0.00  0.00     0.000 C
ATOM    100  C5  SGN B   6     -26.327  52.688  10.3930  0.00  0.00     0.000 C
ATOM    101  O5  SGN B   6     -27.194  51.571  10.2170  0.00  0.00     0.000 O
BRANCH 97 104
ATOM    102   N  SGN B   6     -27.599  49.520  12.3770  0.00  0.00     0.000 N
ATOM    104  HD  SGN B   6     -28.230  49.550  12.9690  0.00  0.00     0.000 HD
ATOM    104 @NS  SGN B   6     -27.588  48.515  13.6970  0.00  0.00     0.000 S
ATOM    105   O  SGN B   6     -26.759  49.130  14.7100  0.00  0.00     0.000 OA
ATOM    106   O  SGN B   6     -28.960  48.375  14.1250  0.00  0.00     0.000 OA
ATOM    107   O  SGN B   6     -27.021  47.264  13.2420  0.00  0.00     0.000 OA
ENDBRANCH 97 104
BRANCH 100 108
ATOM    108   C  SGN B   6     -25.827  53.053   9.0010  0.00  0.00     0.000 C
ATOM    109   O  SGN B   6     -26.006  54.432   8.7880  0.00  0.00     0.000 O
ATOM    110  @S  SGN B   6     -25.628  55.217   7.4800  0.00  0.00     0.000 S
ATOM    111   O  SGN B   6     -26.000  54.358   6.3810  0.00  0.00     0.000 OA
ATOM    112   O  SGN B   6     -26.402  56.447   7.5010  0.00  0.00     0.000 OA
ATOM    113   O  SGN B   6     -24.202  55.440   7.5560  0.00  0.00     0.000 OA
ENDBRANCH 100 108
ENDBRANCH 95 99
ENDBRANCH 79 95
ENDBRANCH 78 82
ENDBRANCH 58 78
ENDBRANCH 57 61
ENDBRANCH 41 57
ENDBRANCH 40 44
ENDBRANCH 20 40
ENDBRANCH 19 23
ENDBRANCH 1 19
TORSDOF 22
ENDMDL
MODEL 73
REMARK VINA RESULT:       3.7      2.776      4.768
ROOT
ATOM      1  C1  IDS B   1     -25.941  59.037  11.0920  0.00  0.00     0.000 C
ATOM      2  C2  IDS B   1     -27.007  58.886  10.0390  0.00  0.00     0.000 C
ATOM      3  C3  IDS B   1     -28.302  58.163  10.4800  0.00  0.00     0.000 C
ATOM      4  C4  IDS B   1     -28.619  58.313  12.0150  0.00  0.00     0.000 C
ATOM      5  C5  IDS B   1     -27.344  58.504  12.8720  0.00  0.00     0.000 C
ATOM      6  O5  IDS B   1     -26.521  59.485  12.3000  0.00  0.00     0.000 O
ATOM      7   O  IDS B   1     -28.165  56.792  10.1180  0.00  0.00     0.000 O
ATOM      9  HD  IDS B   1     -28.731  56.864  10.7690  0.00  0.00     0.000 HD
ATOM      9   O  IDS B   1     -29.426  59.458  12.1760  0.00  0.00     0.000 O
ATOM     11  HD  IDS B   1     -29.993  59.530  12.8270  0.00  0.00     0.000 HD
ENDROOT
BRANCH 2 11
ATOM     11   O  IDS B   1     -27.393  60.137   9.5830  0.00  0.00     0.000 O
ATOM     12  @S  IDS B   1     -27.154  60.655   8.1520  0.00  0.00     0.000 S
ATOM     13   O  IDS B   1     -25.989  59.918   7.7060  0.00  0.00     0.000 OA
ATOM     14   O  IDS B   1     -28.345  60.330   7.3880  0.00  0.00     0.000 OA
ATOM     15   O  IDS B   1     -26.939  62.083   8.2790  0.00  0.00     0.000 OA
ENDBRANCH 2 11
BRANCH 5 16
ATOM     16 @CA  IDS B   1     -27.556  58.808  14.3520  0.00  0.00     0.000 C
ATOM     17   O  IDS B   1     -26.759  59.492  14.9900  0.00  0.00     0.000 OA
ATOM     18   O  IDS B   1     -28.547  58.383  14.9400  0.00  0.00     0.000 OA
ENDBRANCH 5 16
BRANCH 1 19
ATOM     19  O4  SGN B   2     -25.319  57.781  11.2670  0.00  0.00     0.000 O
BRANCH 19 23
ATOM     20  C1  SGN B   2     -21.666  56.414  10.0260  0.00  0.00     0.000 C
ATOM     21  C2  SGN B   2     -21.841  57.896  10.2740  0.00  0.00     0.000 C
ATOM     22  C3  SGN B   2     -22.959  58.108  11.2290  0.00  0.00     0.000 C
ATOM     23  C4  SGN B   2     -24.181  57.584  10.5090  0.00  0.00     0.000 C
ATOM     24  C5  SGN B   2     -23.961  56.117  10.3830  0.00  0.00     0.000 C
ATOM     25  O5  SGN B   2     -22.891  55.884   9.5400  0.00  0.00     0.000 O
ATOM     26   O  SGN B   2     -23.094  59.461  11.4890  0.00  0.00     0.000 O
ATOM     28  HD  SGN B   2     -23.332  60.292  11.5360  0.00  0.00     0.000 HD
BRANCH 21 30
ATOM     28   N  SGN B   2     -20.921  58.163   9.2070  0.00  0.00     0.000 N
ATOM     30  HD  SGN B   2     -20.536  57.389   9.1700  0.00  0.00     0.000 HD
ATOM     30 @NS  SGN B   2     -19.500  58.840   9.6110  0.00  0.00     0.000 S
ATOM     31   O  SGN B   2     -19.395  58.895  11.0310  0.00  0.00     0.000 OA
ATOM     32   O  SGN B   2     -18.550  57.967   9.0570  0.00  0.00     0.000 OA
ATOM     33   O  SGN B   2     -19.506  60.138   9.0490  0.00  0.00     0.000 OA
ENDBRANCH 21 30
BRANCH 24 34
ATOM     34   C  SGN B   2     -25.108  55.346   9.8420  0.00  0.00     0.000 C
ATOM     35   O  SGN B   2     -25.156  55.571   8.4780  0.00  0.00     0.000 O
ATOM     36  @S  SGN B   2     -26.059  54.792   7.5280  0.00  0.00     0.000 S
ATOM     37   O  SGN B   2     -27.276  55.577   7.4700  0.00  0.00     0.000 OA
ATOM     38   O  SGN B   2     -25.363  54.711   6.2660  0.00  0.00     0.000 OA
ATOM     39   O  SGN B   2     -26.229  53.486   8.1490  0.00  0.00     0.000 OA
ENDBRANCH 24 34
BRANCH 20 40
ATOM     40  O4  IDS B   3     -21.262  55.768  11.1930  0.00  0.00     0.000 O
BRANCH 40 44
ATOM     41  C1  IDS B   3     -19.938  53.337  13.3490  0.00  0.00     0.000 C
ATOM     42  C2  IDS B   3     -19.413  54.771  13.3810  0.00  0.00     0.000 C
ATOM     43  C3  IDS B   3     -19.096  55.396  12.0090  0.00  0.00     0.000 C
ATOM     44  C4  IDS B   3     -20.130  54.992  10.9770  0.00  0.00     0.000 C
ATOM     45  C5  IDS B   3     -20.488  53.501  11.0710  0.00  0.00     0.000 C
ATOM     46  O5  IDS B   3     -20.930  53.192  12.3430  0.00  0.00     0.000 O
ATOM     47   O  IDS B   3     -17.832  54.945  11.5700  0.00  0.00     0.000 O
ATOM     49  HD  IDS B   3     -18.504  55.489  11.6200  0.00  0.00     0.000 HD
BRANCH 42 49
ATOM     49   O  IDS B   3     -20.375  55.583  13.9920  0.00  0.00     0.000 O
ATOM     50   O  IDS B   3     -19.718  54.842  16.1280  0.00  0.00     0.000 OA
ATOM     51   O  IDS B   3     -20.294  57.118  15.8260  0.00  0.00     0.000 OA
ATOM     52   O  IDS B   3     -21.949  55.441  15.6830  0.00  0.00     0.000 OA
ATOM     53  @S  IDS B   3     -20.593  55.759  15.4970  0.00  0.00     0.000 S
ENDBRANCH 42 49
BRANCH 45 54
ATOM     54 @CA  IDS B   3     -21.500  53.005  10.0410  0.00  0.00     0.000 C
ATOM     55   O  IDS B   3     -21.169  52.701   8.9270  0.00  0.00     0.000 OA
ATOM     56   O  IDS B   3     -22.648  52.881  10.3140  0.00  0.00     0.000 OA
ENDBRANCH 45 54
BRANCH 41 57
ATOM     57  O4  SGN B   4     -18.879  52.458  13.1570  0.00  0.00     0.000 O
BRANCH 57 61
ATOM     58  C1  SGN B   4     -20.981  49.036  14.0910  0.00  0.00     0.000 C
ATOM     59  C2  SGN B   4     -20.486  49.846  15.2770  0.00  0.00     0.000 C
ATOM     60  C3  SGN B   4     -20.085  51.245  14.8180  0.00  0.00     0.000 C
ATOM     61  C4  SGN B   4     -19.049  51.181  13.6900  0.00  0.00     0.000 C
ATOM     62  C5  SGN B   4     -19.605  50.274  12.5950  0.00  0.00     0.000 C
ATOM     63  O5  SGN B   4     -19.959  49.004  13.1100  0.00  0.00     0.000 O
ATOM     64   O  SGN B   4     -19.518  51.938  15.9100  0.00  0.00     0.000 O
ATOM     66  HD  SGN B   4     -18.700  52.206  15.8130  0.00  0.00     0.000 HD
BRANCH 59 68
ATOM     66   N  SGN B   4     -20.474  49.029  16.4740  0.00  0.00     0.000 N
ATOM     68  HD  SGN B   4     -20.343  48.919  15.6250  0.00  0.00     0.000 HD
ATOM     68 @NS  SGN B   4     -21.887  48.597  17.1860  0.00  0.00     0.000 S
ATOM     69   O  SGN B   4     -22.794  49.703  17.0930  0.00  0.00     0.000 OA
ATOM     70   O  SGN B   4     -22.371  47.462  16.4550  0.00  0.00     0.000 OA
ATOM     71   O  SGN B   4     -21.524  48.292  18.5370  0.00  0.00     0.000 OA
ENDBRANCH 59 68
BRANCH 62 72
ATOM     72   C  SGN B   4     -18.611  50.027  11.4700  0.00  0.00     0.000 C
ATOM     73   O  SGN B   4     -18.714  48.668  11.1700  0.00  0.00     0.000 O
ATOM     74  @S  SGN B   4     -18.506  47.992   9.8040  0.00  0.00     0.000 S
ATOM     75   O  SGN B   4     -17.192  48.301   9.3750  0.00  0.00     0.000 OA
ATOM     76   O  SGN B   4     -18.675  46.596  10.0730  0.00  0.00     0.000 OA
ATOM     77   O  SGN B   4     -19.482  48.560   8.9360  0.00  0.00     0.000 OA
ENDBRANCH 62 72
BRANCH 58 78
ATOM     78  O4  IDS B   5     -22.185  49.586  13.5950  0.00  0.00     0.000 O
BRANCH 78 82
ATOM     79  C1  IDS B   5     -25.354  50.396  12.4560  0.00  0.00     0.000 C
ATOM     80  C2  IDS B   5     -25.167  50.017  13.8940  0.00  0.00     0.000 C
ATOM     81  C3  IDS B   5     -24.382  48.722  14.0920  0.00  0.00     0.000 C
ATOM     82  C4  IDS B   5     -23.156  48.640  13.2060  0.00  0.00     0.000 C
ATOM     83  C5  IDS B   5     -23.591  48.943  11.8070  0.00  0.00     0.000 C
ATOM     84  O5  IDS B   5     -24.134  50.248  11.7530  0.00  0.00     0.000 O
ATOM     85   O  IDS B   5     -25.228  47.651  13.7510  0.00  0.00     0.000 O
ATOM     87  HD  IDS B   5     -24.435  47.828  13.4520  0.00  0.00     0.000 HD
BRANCH 80 87
ATOM     87   O  IDS B   5     -24.456  51.014  14.5130  0.00  0.00     0.000 O
ATOM     88  @S  IDS B   5     -24.993  52.050  15.5040  0.00  0.00     0.000 S
ATOM     89   O  IDS B   5     -25.646  51.293  16.5090  0.00  0.00     0.000 OA
ATOM     90   O  IDS B   5     -23.852  52.764  15.9590  0.00  0.00     0.000 OA
ATOM     91   O  IDS B   5     -25.880  52.878  14.7640  0.00  0.00     0.000 OA
ENDBRANCH 80 87
BRANCH 83 92
ATOM     92 @CA  IDS B   5     -22.503  48.716  10.7640  0.00  0.00     0.000 C
ATOM     93   O  IDS B   5     -22.069  47.584  10.5350  0.00  0.00     0.000 OA
ATOM     94   O  IDS B   5     -22.030  49.667  10.1310  0.00  0.00     0.000 OA
ENDBRANCH 83 92
BRANCH 79 95
ATOM     95  O4  SGN B   6     -26.376  49.634  11.9050  0.00  0.00     0.000 O
BRANCH 95 99
ATOM     96  C1  SGN B   6     -30.241  50.625  10.7690  0.00  0.00     0.000 C
ATOM     97  C2  SGN B   6     -29.280  51.794  10.9520  0.00  0.00     0.000 C
ATOM     98  C3  SGN B   6     -27.868  51.224  10.8110  0.00  0.00     0.000 C
ATOM     99  C4  SGN B   6     -27.660  50.226  11.9860  0.00  0.00     0.000 C
ATOM    100  C5  SGN B   6     -28.736  49.115  11.8220  0.00  0.00     0.000 C
ATOM    101  O5  SGN B   6     -30.050  49.665  11.7900  0.00  0.00     0.000 O
BRANCH 97 104
ATOM    102   N  SGN B   6     -30.377  52.685  11.3420  0.00  0.00     0.000 N
ATOM    104  HD  SGN B   6     -30.944  52.751  10.6910  0.00  0.00     0.000 HD
ATOM    104 @NS  SGN B   6     -30.554  54.101  10.4970  0.00  0.00     0.000 S
ATOM    105   O  SGN B   6     -29.536  54.129   9.4690  0.00  0.00     0.000 OA
ATOM    106   O  SGN B   6     -31.888  54.092   9.9440  0.00  0.00     0.000 OA
ATOM    107   O  SGN B   6     -30.361  55.166  11.4560  0.00  0.00     0.000 OA
ENDBRANCH 97 104
BRANCH 100 108
ATOM    108   C  SGN B   6     -28.758  48.039  12.9000  0.00  0.00     0.000 C
ATOM    109   O  SGN B   6     -29.852  48.258  13.7570  0.00  0.00     0.000 O
ATOM    110  @S  SGN B   6     -30.234  47.380  15.0030  0.00  0.00     0.000 S
ATOM    111   O  SGN B   6     -28.988  47.047  15.6500  0.00  0.00     0.000 OA
ATOM    112   O  SGN B   6     -31.083  48.209  15.8440  0.00  0.00     0.000 OA
ATOM    113   O  SGN B   6     -30.916  46.222  14.4720  0.00  0.00     0.000 OA
ENDBRANCH 100 108
ENDBRANCH 95 99
ENDBRANCH 79 95
ENDBRANCH 78 82
ENDBRANCH 58 78
ENDBRANCH 57 61
ENDBRANCH 41 57
ENDBRANCH 40 44
ENDBRANCH 20 40
ENDBRANCH 19 23
ENDBRANCH 1 19
TORSDOF 22
ENDMDL
MODEL 74
REMARK VINA RESULT:       3.7      3.242      8.646
ROOT
ATOM      1  C1  IDS B   1     -26.657  57.926  10.8790  0.00  0.00     0.000 C
ATOM      2  C2  IDS B   1     -26.959  59.399  10.8050  0.00  0.00     0.000 C
ATOM      3  C3  IDS B   1     -28.457  59.788  10.8130  0.00  0.00     0.000 C
ATOM      4  C4  IDS B   1     -29.374  58.755  11.5680  0.00  0.00     0.000 C
ATOM      5  C5  IDS B   1     -28.807  57.315  11.5330  0.00  0.00     0.000 C
ATOM      6  O5  IDS B   1     -27.449  57.325  11.8830  0.00  0.00     0.000 O
ATOM      7   O  IDS B   1     -28.863  59.936   9.4560  0.00  0.00     0.000 O
ATOM      9  HD  IDS B   1     -29.553  59.757   9.9470  0.00  0.00     0.000 HD
ATOM      9   O  IDS B   1     -29.454  59.159  12.9170  0.00  0.00     0.000 O
ATOM     11  HD  IDS B   1     -30.145  58.979  13.4080  0.00  0.00     0.000 HD
ENDROOT
BRANCH 2 11
ATOM     11   O  IDS B   1     -26.379  60.049  11.8830  0.00  0.00     0.000 O
ATOM     12  @S  IDS B   1     -25.312  61.154  11.7640  0.00  0.00     0.000 S
ATOM     13   O  IDS B   1     -24.662  60.873  10.5000  0.00  0.00     0.000 OA
ATOM     14   O  IDS B   1     -26.023  62.420  11.7550  0.00  0.00     0.000 OA
ATOM     15   O  IDS B   1     -24.452  60.999  12.9200  0.00  0.00     0.000 OA
ENDBRANCH 2 11
BRANCH 5 16
ATOM     16 @CA  IDS B   1     -29.546  56.271  12.3640  0.00  0.00     0.000 C
ATOM     17   O  IDS B   1     -30.711  56.435  12.7180  0.00  0.00     0.000 OA
ATOM     18   O  IDS B   1     -28.989  55.225  12.6900  0.00  0.00     0.000 OA
ENDBRANCH 5 16
BRANCH 1 19
ATOM     19  O4  SGN B   2     -26.932  57.359   9.6140  0.00  0.00     0.000 O
BRANCH 19 23
ATOM     20  C1  SGN B   2     -24.205  54.309   9.4950  0.00  0.00     0.000 C
ATOM     21  C2  SGN B   2     -23.731  55.718   9.2180  0.00  0.00     0.000 C
ATOM     22  C3  SGN B   2     -24.659  56.686   9.8580  0.00  0.00     0.000 C
ATOM     23  C4  SGN B   2     -25.980  56.467   9.1570  0.00  0.00     0.000 C
ATOM     24  C5  SGN B   2     -26.409  55.096   9.5500  0.00  0.00     0.000 C
ATOM     25  O5  SGN B   2     -25.535  54.171   9.0150  0.00  0.00     0.000 O
ATOM     26   O  SGN B   2     -24.204  57.975   9.6400  0.00  0.00     0.000 O
ATOM     28  HD  SGN B   2     -24.064  58.788   9.3760  0.00  0.00     0.000 HD
BRANCH 21 30
ATOM     28   N  SGN B   2     -22.384  55.783   9.7060  0.00  0.00     0.000 N
ATOM     30  HD  SGN B   2     -22.222  56.616   9.5300  0.00  0.00     0.000 HD
ATOM     30 @NS  SGN B   2     -21.206  55.347   8.6760  0.00  0.00     0.000 S
ATOM     31   O  SGN B   2     -21.769  55.119   7.3880  0.00  0.00     0.000 OA
ATOM     32   O  SGN B   2     -20.343  56.456   8.6730  0.00  0.00     0.000 OA
ATOM     33   O  SGN B   2     -20.640  54.162   9.2020  0.00  0.00     0.000 OA
ENDBRANCH 21 30
BRANCH 24 34
ATOM     34   C  SGN B   2     -27.771  54.705   9.1090  0.00  0.00     0.000 C
ATOM     35   O  SGN B   2     -28.135  53.580   9.8270  0.00  0.00     0.000 O
ATOM     36  @S  SGN B   2     -29.543  52.996   9.8180  0.00  0.00     0.000 S
ATOM     37   O  SGN B   2     -29.520  52.024   8.7440  0.00  0.00     0.000 OA
ATOM     38   O  SGN B   2     -29.759  52.413  11.1220  0.00  0.00     0.000 OA
ATOM     39   O  SGN B   2     -30.424  54.129   9.5700  0.00  0.00     0.000 OA
ENDBRANCH 24 34
BRANCH 20 40
ATOM     40  O4  IDS B   3     -24.127  54.026  10.8590  0.00  0.00     0.000 O
BRANCH 40 44
ATOM     41  C1  IDS B   3     -24.013  52.130  13.8070  0.00  0.00     0.000 C
ATOM     42  C2  IDS B   3     -23.014  53.262  13.5740  0.00  0.00     0.000 C
ATOM     43  C3  IDS B   3     -22.344  53.285  12.1870  0.00  0.00     0.000 C
ATOM     44  C4  IDS B   3     -23.333  52.913  11.1010  0.00  0.00     0.000 C
ATOM     45  C5  IDS B   3     -24.211  51.717  11.5030  0.00  0.00     0.000 C
ATOM     46  O5  IDS B   3     -24.872  51.984  12.6860  0.00  0.00     0.000 O
ATOM     47   O  IDS B   3     -21.287  52.349  12.1630  0.00  0.00     0.000 O
ATOM     49  HD  IDS B   3     -21.719  53.061  11.9240  0.00  0.00     0.000 HD
BRANCH 42 49
ATOM     49   O  IDS B   3     -23.681  54.482  13.7300  0.00  0.00     0.000 O
ATOM     50   O  IDS B   3     -23.272  54.468  16.0490  0.00  0.00     0.000 OA
ATOM     51   O  IDS B   3     -23.131  56.514  14.8670  0.00  0.00     0.000 OA
ATOM     52   O  IDS B   3     -25.217  55.452  15.1650  0.00  0.00     0.000 OA
ATOM     53  @S  IDS B   3     -23.830  55.278  15.0290  0.00  0.00     0.000 S
ENDBRANCH 42 49
BRANCH 45 54
ATOM     54 @CA  IDS B   3     -25.213  51.257  10.4470  0.00  0.00     0.000 C
ATOM     55   O  IDS B   3     -24.874  51.011   9.3210  0.00  0.00     0.000 OA
ATOM     56   O  IDS B   3     -26.360  51.104  10.7100  0.00  0.00     0.000 OA
ENDBRANCH 45 54
BRANCH 41 57
ATOM     57  O4  SGN B   4     -23.326  50.954  14.0840  0.00  0.00     0.000 O
BRANCH 57 61
ATOM     58  C1  SGN B   4     -23.366  47.814  16.7560  0.00  0.00     0.000 C
ATOM     59  C2  SGN B   4     -24.504  47.833  15.7490  0.00  0.00     0.000 C
ATOM     60  C3  SGN B   4     -24.166  48.784  14.6050  0.00  0.00     0.000 C
ATOM     61  C4  SGN B   4     -23.837  50.186  15.1300  0.00  0.00     0.000 C
ATOM     62  C5  SGN B   4     -22.754  50.045  16.1960  0.00  0.00     0.000 C
ATOM     63  O5  SGN B   4     -23.146  49.139  17.2100  0.00  0.00     0.000 O
ATOM     64   O  SGN B   4     -25.283  48.877  13.7450  0.00  0.00     0.000 O
ATOM     66  HD  SGN B   4     -25.627  49.665  13.6460  0.00  0.00     0.000 HD
BRANCH 59 68
ATOM     66   N  SGN B   4     -25.597  47.000  16.2080  0.00  0.00     0.000 N
ATOM     68  HD  SGN B   4     -24.993  47.512  16.5600  0.00  0.00     0.000 HD
ATOM     68 @NS  SGN B   4     -25.441  45.368  16.2060  0.00  0.00     0.000 S
ATOM     69   O  SGN B   4     -24.704  44.987  15.0370  0.00  0.00     0.000 OA
ATOM     70   O  SGN B   4     -24.726  45.034  17.4040  0.00  0.00     0.000 OA
ATOM     71   O  SGN B   4     -26.787  44.883  16.1930  0.00  0.00     0.000 OA
ENDBRANCH 59 68
BRANCH 62 72
ATOM     72   C  SGN B   4     -22.429  51.360  16.8870  0.00  0.00     0.000 C
ATOM     73   O  SGN B   4     -21.037  51.389  17.0030  0.00  0.00     0.000 O
ATOM     74  @S  SGN B   4     -20.122  52.625  16.9840  0.00  0.00     0.000 S
ATOM     75   O  SGN B   4     -20.535  53.473  18.0400  0.00  0.00     0.000 OA
ATOM     76   O  SGN B   4     -18.809  52.093  17.1960  0.00  0.00     0.000 OA
ATOM     77   O  SGN B   4     -20.324  53.239  15.7150  0.00  0.00     0.000 OA
ENDBRANCH 62 72
BRANCH 58 78
ATOM     78  O4  IDS B   5     -22.210  47.246  16.1750  0.00  0.00     0.000 O
BRANCH 78 82
ATOM     79  C1  IDS B   5     -19.065  45.954  15.5180  0.00  0.00     0.000 C
ATOM     80  C2  IDS B   5     -20.276  45.208  15.0480  0.00  0.00     0.000 C
ATOM     81  C3  IDS B   5     -21.331  44.999  16.1310  0.00  0.00     0.000 C
ATOM     82  C4  IDS B   5     -21.582  46.249  16.9500  0.00  0.00     0.000 C
ATOM     83  C5  IDS B   5     -20.254  46.761  17.4100  0.00  0.00     0.000 C
ATOM     84  O5  IDS B   5     -19.455  47.078  16.2860  0.00  0.00     0.000 O
ATOM     85   O  IDS B   5     -20.857  44.004  17.0060  0.00  0.00     0.000 O
ATOM     87  HD  IDS B   5     -21.135  44.801  17.1970  0.00  0.00     0.000 HD
BRANCH 80 87
ATOM     87   O  IDS B   5     -20.869  45.937  14.0470  0.00  0.00     0.000 O
ATOM     88  @S  IDS B   5     -21.032  45.529  12.5810  0.00  0.00     0.000 S
ATOM     89   O  IDS B   5     -21.658  44.257  12.6210  0.00  0.00     0.000 OA
ATOM     90   O  IDS B   5     -21.822  46.550  11.9900  0.00  0.00     0.000 OA
ATOM     91   O  IDS B   5     -19.720  45.487  12.0370  0.00  0.00     0.000 OA
ENDBRANCH 80 87
BRANCH 83 92
ATOM     92 @CA  IDS B   5     -20.351  47.912  18.4040  0.00  0.00     0.000 C
ATOM     93   O  IDS B   5     -21.105  47.847  19.3780  0.00  0.00     0.000 OA
ATOM     94   O  IDS B   5     -19.677  48.937  18.2480  0.00  0.00     0.000 OA
ENDBRANCH 83 92
BRANCH 79 95
ATOM     95  O4  SGN B   6     -18.237  45.094  16.2280  0.00  0.00     0.000 O
BRANCH 95 99
ATOM     96  C1  SGN B   6     -14.590  45.380  18.1850  0.00  0.00     0.000 C
ATOM     97  C2  SGN B   6     -15.696  46.294  18.7000  0.00  0.00     0.000 C
ATOM     98  C3  SGN B   6     -17.020  45.666  18.2630  0.00  0.00     0.000 C
ATOM     99  C4  SGN B   6     -17.045  45.689  16.7080  0.00  0.00     0.000 C
ATOM    100  C5  SGN B   6     -15.832  44.841  16.2310  0.00  0.00     0.000 C
ATOM    101  O5  SGN B   6     -14.609  45.332  16.7720  0.00  0.00     0.000 O
BRANCH 97 104
ATOM    102   N  SGN B   6     -14.607  47.144  19.1900  0.00  0.00     0.000 N
ATOM    104  HD  SGN B   6     -14.240  46.776  19.8830  0.00  0.00     0.000 HD
ATOM    104 @NS  SGN B   6     -14.771  47.806  20.7030  0.00  0.00     0.000 S
ATOM    105   O  SGN B   6     -16.024  47.337  21.2540  0.00  0.00     0.000 OA
ATOM    106   O  SGN B   6     -13.634  47.362  21.4760  0.00  0.00     0.000 OA
ATOM    107   O  SGN B   6     -14.784  49.239  20.5130  0.00  0.00     0.000 OA
ENDBRANCH 97 104
BRANCH 100 108
ATOM    108   C  SGN B   6     -15.622  44.760  14.7240  0.00  0.00     0.000 C
ATOM    109   O  SGN B   6     -15.772  46.040  14.1630  0.00  0.00     0.000 O
ATOM    110  @S  SGN B   6     -15.643  46.397  12.6370  0.00  0.00     0.000 S
ATOM    111   O  SGN B   6     -16.284  45.319  11.9220  0.00  0.00     0.000 OA
ATOM    112   O  SGN B   6     -16.332  47.664  12.4510  0.00  0.00     0.000 OA
ATOM    113   O  SGN B   6     -14.224  46.477  12.3730  0.00  0.00     0.000 OA
ENDBRANCH 100 108
ENDBRANCH 95 99
ENDBRANCH 79 95
ENDBRANCH 78 82
ENDBRANCH 58 78
ENDBRANCH 57 61
ENDBRANCH 41 57
ENDBRANCH 40 44
ENDBRANCH 20 40
ENDBRANCH 19 23
ENDBRANCH 1 19
TORSDOF 22
ENDMDL
MODEL 75
REMARK VINA RESULT:       3.8      5.014     10.510
ROOT
ATOM      1  C1  IDS B   1     -17.017  51.599  13.3910  0.00  0.00     0.000 C
ATOM      2  C2  IDS B   1     -16.039  50.839  12.5340  0.00  0.00     0.000 C
ATOM      3  C3  IDS B   1     -15.653  51.502  11.1900  0.00  0.00     0.000 C
ATOM      4  C4  IDS B   1     -15.743  53.074  11.2110  0.00  0.00     0.000 C
ATOM      5  C5  IDS B   1     -16.797  53.598  12.2170  0.00  0.00     0.000 C
ATOM      6  O5  IDS B   1     -16.640  52.960  13.4560  0.00  0.00     0.000 O
ATOM      7   O  IDS B   1     -16.506  50.955  10.1890  0.00  0.00     0.000 O
ATOM      9  HD  IDS B   1     -16.220  51.731   9.9330  0.00  0.00     0.000 HD
ATOM      9   O  IDS B   1     -14.483  53.570  11.6040  0.00  0.00     0.000 O
ATOM     11  HD  IDS B   1     -14.198  54.347  11.3480  0.00  0.00     0.000 HD
ENDROOT
BRANCH 2 11
ATOM     11   O  IDS B   1     -14.856  50.650  13.2310  0.00  0.00     0.000 O
ATOM     12  @S  IDS B   1     -14.236  49.273  13.5380  0.00  0.00     0.000 S
ATOM     13   O  IDS B   1     -15.372  48.375  13.5470  0.00  0.00     0.000 OA
ATOM     14   O  IDS B   1     -13.307  48.986  12.4590  0.00  0.00     0.000 OA
ATOM     15   O  IDS B   1     -13.581  49.412  14.8230  0.00  0.00     0.000 OA
ENDBRANCH 2 11
BRANCH 5 16
ATOM     16 @CA  IDS B   1     -16.854  55.109  12.4200  0.00  0.00     0.000 C
ATOM     17   O  IDS B   1     -17.368  55.606  13.4190  0.00  0.00     0.000 OA
ATOM     18   O  IDS B   1     -16.368  55.869  11.5850  0.00  0.00     0.000 OA
ENDBRANCH 5 16
BRANCH 1 19
ATOM     19  O4  SGN B   2     -18.301  51.459  12.8190  0.00  0.00     0.000 O
BRANCH 19 23
ATOM     20  C1  SGN B   2     -21.574  49.252  13.9010  0.00  0.00     0.000 C
ATOM     21  C2  SGN B   2     -20.781  49.953  14.9820  0.00  0.00     0.000 C
ATOM     22  C3  SGN B   2     -20.056  51.108  14.3920  0.00  0.00     0.000 C
ATOM     23  C4  SGN B   2     -19.095  50.490  13.4020  0.00  0.00     0.000 C
ATOM     24  C5  SGN B   2     -19.955  49.900  12.3390  0.00  0.00     0.000 C
ATOM     25  O5  SGN B   2     -20.685  48.853  12.8670  0.00  0.00     0.000 O
ATOM     26   O  SGN B   2     -19.362  51.775  15.3870  0.00  0.00     0.000 O
ATOM     28  HD  SGN B   2     -18.775  52.106  15.9310  0.00  0.00     0.000 HD
BRANCH 21 30
ATOM     28   N  SGN B   2     -21.276  48.848  15.7500  0.00  0.00     0.000 N
ATOM     30  HD  SGN B   2     -22.046  48.757  15.3660  0.00  0.00     0.000 HD
ATOM     30 @NS  SGN B   2     -22.027  49.200  17.1480  0.00  0.00     0.000 S
ATOM     31   O  SGN B   2     -22.178  50.613  17.2560  0.00  0.00     0.000 OA
ATOM     32   O  SGN B   2     -23.270  48.557  17.0250  0.00  0.00     0.000 OA
ATOM     33   O  SGN B   2     -21.202  48.695  18.1790  0.00  0.00     0.000 OA
ENDBRANCH 21 30
BRANCH 24 34
ATOM     34   C  SGN B   2     -19.231  49.365  11.1590  0.00  0.00     0.000 C
ATOM     35   O  SGN B   2     -18.417  48.337  11.6010  0.00  0.00     0.000 O
ATOM     36  @S  SGN B   2     -17.672  47.393  10.6630  0.00  0.00     0.000 S
ATOM     37   O  SGN B   2     -16.383  48.026  10.4700  0.00  0.00     0.000 OA
ATOM     38   O  SGN B   2     -17.596  46.117  11.3350  0.00  0.00     0.000 OA
ATOM     39   O  SGN B   2     -18.486  47.333   9.4570  0.00  0.00     0.000 OA
ENDBRANCH 24 34
BRANCH 20 40
ATOM     40  O4  IDS B   3     -22.577  50.088  13.4120  0.00  0.00     0.000 O
BRANCH 40 44
ATOM     41  C1  IDS B   3     -25.668  51.436  12.4450  0.00  0.00     0.000 C
ATOM     42  C2  IDS B   3     -24.987  51.902  13.7300  0.00  0.00     0.000 C
ATOM     43  C3  IDS B   3     -24.448  50.783  14.6420  0.00  0.00     0.000 C
ATOM     44  C4  IDS B   3     -23.834  49.664  13.8230  0.00  0.00     0.000 C
ATOM     45  C5  IDS B   3     -24.694  49.304  12.6020  0.00  0.00     0.000 C
ATOM     46  O5  IDS B   3     -24.902  50.419  11.8150  0.00  0.00     0.000 O
ATOM     47   O  IDS B   3     -25.510  50.245  15.4010  0.00  0.00     0.000 O
ATOM     49  HD  IDS B   3     -24.686  50.447  15.2260  0.00  0.00     0.000 HD
BRANCH 42 49
ATOM     49   O  IDS B   3     -23.901  52.714  13.3890  0.00  0.00     0.000 O
ATOM     50   O  IDS B   3     -24.638  54.403  14.8570  0.00  0.00     0.000 OA
ATOM     51   O  IDS B   3     -22.319  53.959  14.6820  0.00  0.00     0.000 OA
ATOM     52   O  IDS B   3     -23.485  54.934  12.8760  0.00  0.00     0.000 OA
ATOM     53  @S  IDS B   3     -23.564  54.081  13.9900  0.00  0.00     0.000 S
ENDBRANCH 42 49
BRANCH 45 54
ATOM     54 @CA  IDS B   3     -24.162  48.160  11.7420  0.00  0.00     0.000 C
ATOM     55   O  IDS B   3     -23.350  48.346  10.8770  0.00  0.00     0.000 OA
ATOM     56   O  IDS B   3     -24.517  47.041  11.9160  0.00  0.00     0.000 OA
ENDBRANCH 45 54
BRANCH 41 57
ATOM     57  O4  SGN B   4     -26.957  51.004  12.7310  0.00  0.00     0.000 O
BRANCH 57 61
ATOM     58  C1  SGN B   4     -30.161  49.394  10.6950  0.00  0.00     0.000 C
ATOM     59  C2  SGN B   4     -29.252  48.392  11.3870  0.00  0.00     0.000 C
ATOM     60  C3  SGN B   4     -28.367  49.110  12.4010  0.00  0.00     0.000 C
ATOM     61  C4  SGN B   4     -27.576  50.244  11.7390  0.00  0.00     0.000 C
ATOM     62  C5  SGN B   4     -28.569  51.137  11.0000  0.00  0.00     0.000 C
ATOM     63  O5  SGN B   4     -29.354  50.390  10.0890  0.00  0.00     0.000 O
ATOM     64   O  SGN B   4     -27.451  48.181  12.9440  0.00  0.00     0.000 O
ATOM     66  HD  SGN B   4     -26.611  48.355  12.8250  0.00  0.00     0.000 HD
BRANCH 59 68
ATOM     66   N  SGN B   4     -30.061  47.382  12.0390  0.00  0.00     0.000 N
ATOM     68  HD  SGN B   4     -29.219  47.553  11.9290  0.00  0.00     0.000 HD
ATOM     68 @NS  SGN B   4     -30.827  46.241  11.1450  0.00  0.00     0.000 S
ATOM     69   O  SGN B   4     -31.300  46.856   9.9400  0.00  0.00     0.000 OA
ATOM     70   O  SGN B   4     -29.848  45.230  10.8640  0.00  0.00     0.000 OA
ATOM     71   O  SGN B   4     -31.890  45.784  11.9880  0.00  0.00     0.000 OA
ENDBRANCH 59 68
BRANCH 62 72
ATOM     72   C  SGN B   4     -27.890  52.234  10.1930  0.00  0.00     0.000 C
ATOM     73   O  SGN B   4     -28.456  53.431  10.6370  0.00  0.00     0.000 O
ATOM     74  @S  SGN B   4     -27.784  54.812  10.7130  0.00  0.00     0.000 S
ATOM     75   O  SGN B   4     -27.352  55.145   9.4060  0.00  0.00     0.000 OA
ATOM     76   O  SGN B   4     -28.821  55.682  11.1800  0.00  0.00     0.000 OA
ATOM     77   O  SGN B   4     -26.681  54.660  11.6010  0.00  0.00     0.000 OA
ENDBRANCH 62 72
BRANCH 58 78
ATOM     78  O4  IDS B   5     -31.080  49.938  11.6210  0.00  0.00     0.000 O
BRANCH 78 82
ATOM     79  C1  IDS B   5     -33.843  50.684  13.5720  0.00  0.00     0.000 C
ATOM     80  C2  IDS B   5     -33.618  49.270  13.1300  0.00  0.00     0.000 C
ATOM     81  C3  IDS B   5     -33.353  49.127  11.6340  0.00  0.00     0.000 C
ATOM     82  C4  IDS B   5     -32.377  50.162  11.1110  0.00  0.00     0.000 C
ATOM     83  C5  IDS B   5     -32.851  51.502  11.5730  0.00  0.00     0.000 C
ATOM     84  O5  IDS B   5     -32.872  51.535  12.9880  0.00  0.00     0.000 O
ATOM     85   O  IDS B   5     -34.574  49.314  10.9600  0.00  0.00     0.000 O
ATOM     87  HD  IDS B   5     -33.820  49.721  10.8320  0.00  0.00     0.000 HD
BRANCH 80 87
ATOM     87   O  IDS B   5     -32.510  48.787  13.7810  0.00  0.00     0.000 O
ATOM     88  @S  IDS B   5     -32.487  47.806  14.9560  0.00  0.00     0.000 S
ATOM     89   O  IDS B   5     -33.256  46.696  14.5240  0.00  0.00     0.000 OA
ATOM     90   O  IDS B   5     -31.114  47.515  15.1770  0.00  0.00     0.000 OA
ATOM     91   O  IDS B   5     -33.070  48.495  16.0540  0.00  0.00     0.000 OA
ENDBRANCH 80 87
BRANCH 83 92
ATOM     92 @CA  IDS B   5     -32.077  52.669  10.9710  0.00  0.00     0.000 C
ATOM     93   O  IDS B   5     -31.709  53.615  11.6710  0.00  0.00     0.000 OA
ATOM     94   O  IDS B   5     -31.807  52.688   9.7640  0.00  0.00     0.000 OA
ENDBRANCH 83 92
BRANCH 79 95
ATOM     95  O4  SGN B   6     -35.139  51.069  13.2540  0.00  0.00     0.000 O
BRANCH 95 99
ATOM     96  C1  SGN B   6     -37.396  54.528  13.6440  0.00  0.00     0.000 C
ATOM     97  C2  SGN B   6     -36.328  54.549  12.5570  0.00  0.00     0.000 C
ATOM     98  C3  SGN B   6     -36.026  53.089  12.2140  0.00  0.00     0.000 C
ATOM     99  C4  SGN B   6     -35.419  52.437  13.4890  0.00  0.00     0.000 C
ATOM    100  C5  SGN B   6     -36.501  52.545  14.6010  0.00  0.00     0.000 C
ATOM    101  O5  SGN B   6     -36.901  53.896  14.8090  0.00  0.00     0.000 O
BRANCH 97 104
ATOM    102   N  SGN B   6     -36.912  55.388  11.5070  0.00  0.00     0.000 N
ATOM    104  HD  SGN B   6     -36.309  55.573  10.9130  0.00  0.00     0.000 HD
ATOM    104 @NS  SGN B   6     -36.317  56.928  11.3340  0.00  0.00     0.000 S
ATOM    105   O  SGN B   6     -35.257  57.100  12.3030  0.00  0.00     0.000 OA
ATOM    106   O  SGN B   6     -35.838  57.039   9.9760  0.00  0.00     0.000 OA
ATOM    107   O  SGN B   6     -37.425  57.817  11.6040  0.00  0.00     0.000 OA
ENDBRANCH 97 104
BRANCH 100 108
ATOM    108   C  SGN B   6     -36.108  52.009  15.9730  0.00  0.00     0.000 C
ATOM    109   O  SGN B   6     -34.881  52.575  16.3610  0.00  0.00     0.000 O
ATOM    110  @S  SGN B   6     -34.118  52.285  17.7040  0.00  0.00     0.000 S
ATOM    111   O  SGN B   6     -34.258  50.868  17.9410  0.00  0.00     0.000 OA
ATOM    112   O  SGN B   6     -32.733  52.668  17.4800  0.00  0.00     0.000 OA
ATOM    113   O  SGN B   6     -34.776  53.088  18.7090  0.00  0.00     0.000 OA
ENDBRANCH 100 108
ENDBRANCH 95 99
ENDBRANCH 79 95
ENDBRANCH 78 82
ENDBRANCH 58 78
ENDBRANCH 57 61
ENDBRANCH 41 57
ENDBRANCH 40 44
ENDBRANCH 20 40
ENDBRANCH 19 23
ENDBRANCH 1 19
TORSDOF 22
ENDMDL
MODEL 76
REMARK VINA RESULT:       3.8      2.486      8.333
ROOT
ATOM      1  C1  IDS B   1     -27.630  52.267  10.1370  0.00  0.00     0.000 C
ATOM      2  C2  IDS B   1     -28.498  53.035  11.0990  0.00  0.00     0.000 C
ATOM      3  C3  IDS B   1     -28.026  54.466  11.4490  0.00  0.00     0.000 C
ATOM      4  C4  IDS B   1     -27.185  55.152  10.3080  0.00  0.00     0.000 C
ATOM      5  C5  IDS B   1     -26.422  54.129   9.4320  0.00  0.00     0.000 C
ATOM      6  O5  IDS B   1     -27.282  53.092   9.0440  0.00  0.00     0.000 O
ATOM      7   O  IDS B   1     -27.275  54.379  12.6560  0.00  0.00     0.000 O
ATOM      9  HD  IDS B   1     -27.033  55.085  12.2150  0.00  0.00     0.000 HD
ATOM      9   O  IDS B   1     -28.082  55.853   9.4770  0.00  0.00     0.000 O
ATOM     11  HD  IDS B   1     -27.840  56.558   9.0360  0.00  0.00     0.000 HD
ENDROOT
BRANCH 2 11
ATOM     11   O  IDS B   1     -29.775  53.161  10.5740  0.00  0.00     0.000 O
ATOM     12  @S  IDS B   1     -31.068  52.796  11.3290  0.00  0.00     0.000 S
ATOM     13   O  IDS B   1     -30.642  51.786  12.2770  0.00  0.00     0.000 OA
ATOM     14   O  IDS B   1     -31.528  54.010  11.9790  0.00  0.00     0.000 OA
ATOM     15   O  IDS B   1     -31.990  52.311  10.3220  0.00  0.00     0.000 OA
ENDBRANCH 2 11
BRANCH 5 16
ATOM     16 @CA  IDS B   1     -25.699  54.684   8.2090  0.00  0.00     0.000 C
ATOM     17   O  IDS B   1     -25.789  54.146   7.1070  0.00  0.00     0.000 OA
ATOM     18   O  IDS B   1     -25.014  55.701   8.2970  0.00  0.00     0.000 OA
ENDBRANCH 5 16
BRANCH 1 19
ATOM     19  O4  SGN B   2     -26.477  51.842  10.8340  0.00  0.00     0.000 O
BRANCH 19 23
ATOM     20  C1  SGN B   2     -26.078  49.146  13.8880  0.00  0.00     0.000 C
ATOM     21  C2  SGN B   2     -27.267  49.022  12.9600  0.00  0.00     0.000 C
ATOM     22  C3  SGN B   2     -26.942  49.654  11.6550  0.00  0.00     0.000 C
ATOM     23  C4  SGN B   2     -26.726  51.114  11.9820  0.00  0.00     0.000 C
ATOM     24  C5  SGN B   2     -25.498  51.149  12.8240  0.00  0.00     0.000 C
ATOM     25  O5  SGN B   2     -25.749  50.521  14.0280  0.00  0.00     0.000 O
ATOM     26   O  SGN B   2     -28.013  49.505  10.7910  0.00  0.00     0.000 O
ATOM     28  HD  SGN B   2     -28.712  49.599  10.2890  0.00  0.00     0.000 HD
BRANCH 21 30
ATOM     28   N  SGN B   2     -27.434  47.598  12.9900  0.00  0.00     0.000 N
ATOM     30  HD  SGN B   2     -27.991  47.519  12.3310  0.00  0.00     0.000 HD
ATOM     30 @NS  SGN B   2     -28.563  47.011  14.0010  0.00  0.00     0.000 S
ATOM     31   O  SGN B   2     -29.293  48.094  14.5690  0.00  0.00     0.000 OA
ATOM     32   O  SGN B   2     -29.375  46.223  13.1670  0.00  0.00     0.000 OA
ATOM     33   O  SGN B   2     -27.865  46.288  14.9960  0.00  0.00     0.000 OA
ENDBRANCH 21 30
BRANCH 24 34
ATOM     34   C  SGN B   2     -24.986  52.504  13.1460  0.00  0.00     0.000 C
ATOM     35   O  SGN B   2     -25.126  52.690  14.5090  0.00  0.00     0.000 O
ATOM     36  @S  SGN B   2     -24.522  53.869  15.2630  0.00  0.00     0.000 S
ATOM     37   O  SGN B   2     -25.566  54.874  15.2500  0.00  0.00     0.000 OA
ATOM     38   O  SGN B   2     -24.195  53.391  16.5870  0.00  0.00     0.000 OA
ATOM     39   O  SGN B   2     -23.336  54.240  14.5040  0.00  0.00     0.000 OA
ENDBRANCH 24 34
BRANCH 20 40
ATOM     40  O4  IDS B   3     -24.998  48.413  13.3990  0.00  0.00     0.000 O
BRANCH 40 44
ATOM     41  C1  IDS B   3     -22.119  46.432  13.0930  0.00  0.00     0.000 C
ATOM     42  C2  IDS B   3     -23.507  45.799  13.0240  0.00  0.00     0.000 C
ATOM     43  C3  IDS B   3     -24.497  46.240  14.1200  0.00  0.00     0.000 C
ATOM     44  C4  IDS B   3     -24.354  47.720  14.4150  0.00  0.00     0.000 C
ATOM     45  C5  IDS B   3     -22.882  48.153  14.4980  0.00  0.00     0.000 C
ATOM     46  O5  IDS B   3     -22.219  47.829  13.3300  0.00  0.00     0.000 O
ATOM     47   O  IDS B   3     -24.230  45.524  15.3070  0.00  0.00     0.000 O
ATOM     49  HD  IDS B   3     -24.714  45.968  14.7430  0.00  0.00     0.000 HD
BRANCH 42 49
ATOM     49   O  IDS B   3     -24.084  46.125  11.7920  0.00  0.00     0.000 O
ATOM     50   O  IDS B   3     -24.666  43.875  11.4110  0.00  0.00     0.000 OA
ATOM     51   O  IDS B   3     -26.178  45.580  10.7710  0.00  0.00     0.000 OA
ATOM     52   O  IDS B   3     -24.132  45.311   9.6250  0.00  0.00     0.000 OA
ATOM     53  @S  IDS B   3     -24.812  45.166  10.8460  0.00  0.00     0.000 S
ENDBRANCH 42 49
BRANCH 45 54
ATOM     54 @CA  IDS B   3     -22.651  49.626  14.8270  0.00  0.00     0.000 C
ATOM     55   O  IDS B   3     -22.955  50.089  15.8940  0.00  0.00     0.000 OA
ATOM     56   O  IDS B   3     -22.142  50.361  14.0470  0.00  0.00     0.000 OA
ENDBRANCH 45 54
BRANCH 41 57
ATOM     57  O4  SGN B   4     -21.366  45.797  14.0730  0.00  0.00     0.000 O
BRANCH 57 61
ATOM     58  C1  SGN B   4     -17.743  47.575  13.2270  0.00  0.00     0.000 C
ATOM     59  C2  SGN B   4     -18.194  46.505  12.2470  0.00  0.00     0.000 C
ATOM     60  C3  SGN B   4     -19.680  46.218  12.4410  0.00  0.00     0.000 C
ATOM     61  C4  SGN B   4     -19.984  45.834  13.8940  0.00  0.00     0.000 C
ATOM     62  C5  SGN B   4     -19.411  46.925  14.7950  0.00  0.00     0.000 C
ATOM     63  O5  SGN B   4     -18.034  47.132  14.5420  0.00  0.00     0.000 O
ATOM     64   O  SGN B   4     -20.049  45.141  11.6050  0.00  0.00     0.000 O
ATOM     66  HD  SGN B   4     -20.364  44.438  12.0000  0.00  0.00     0.000 HD
BRANCH 59 68
ATOM     66   N  SGN B   4     -17.045  46.041  11.4960  0.00  0.00     0.000 N
ATOM     68  HD  SGN B   4     -17.207  46.351  12.2890  0.00  0.00     0.000 HD
ATOM     68 @NS  SGN B   4     -16.395  46.986  10.3240  0.00  0.00     0.000 S
ATOM     69   O  SGN B   4     -17.464  47.654   9.6410  0.00  0.00     0.000 OA
ATOM     70   O  SGN B   4     -15.540  47.922  10.9940  0.00  0.00     0.000 OA
ATOM     71   O  SGN B   4     -15.687  46.071   9.4820  0.00  0.00     0.000 OA
ENDBRANCH 59 68
BRANCH 62 72
ATOM     72   C  SGN B   4     -19.538  46.596  16.2750  0.00  0.00     0.000 C
ATOM     73   O  SGN B   4     -19.135  47.749  16.9510  0.00  0.00     0.000 O
ATOM     74  @S  SGN B   4     -19.637  48.259  18.3130  0.00  0.00     0.000 S
ATOM     75   O  SGN B   4     -19.384  47.242  19.2650  0.00  0.00     0.000 OA
ATOM     76   O  SGN B   4     -18.857  49.436  18.5560  0.00  0.00     0.000 OA
ATOM     77   O  SGN B   4     -21.034  48.486  18.1520  0.00  0.00     0.000 OA
ENDBRANCH 62 72
BRANCH 58 78
ATOM     78  O4  IDS B   5     -18.367  48.806  12.9250  0.00  0.00     0.000 O
BRANCH 78 82
ATOM     79  C1  IDS B   5     -19.358  52.103  12.5430  0.00  0.00     0.000 C
ATOM     80  C2  IDS B   5     -19.098  51.271  11.3250  0.00  0.00     0.000 C
ATOM     81  C3  IDS B   5     -17.761  50.535  11.3550  0.00  0.00     0.000 C
ATOM     82  C4  IDS B   5     -17.483  49.881  12.6930  0.00  0.00     0.000 C
ATOM     83  C5  IDS B   5     -17.693  50.915  13.7520  0.00  0.00     0.000 C
ATOM     84  O5  IDS B   5     -19.032  51.370  13.7100  0.00  0.00     0.000 O
ATOM     85   O  IDS B   5     -16.745  51.481  11.1230  0.00  0.00     0.000 O
ATOM     87  HD  IDS B   5     -16.819  50.919  11.7780  0.00  0.00     0.000 HD
BRANCH 80 87
ATOM     87   O  IDS B   5     -20.079  50.314  11.2410  0.00  0.00     0.000 O
ATOM     88  @S  IDS B   5     -20.776  49.819   9.9720  0.00  0.00     0.000 S
ATOM     89   O  IDS B   5     -19.725  49.442   9.0970  0.00  0.00     0.000 OA
ATOM     90   O  IDS B   5     -21.602  48.741  10.3900  0.00  0.00     0.000 OA
ATOM     91   O  IDS B   5     -21.538  50.917   9.4880  0.00  0.00     0.000 OA
ENDBRANCH 80 87
BRANCH 83 92
ATOM     92 @CA  IDS B   5     -17.270  50.461  15.1440  0.00  0.00     0.000 C
ATOM     93   O  IDS B   5     -16.227  49.826  15.3150  0.00  0.00     0.000 OA
ATOM     94   O  IDS B   5     -17.971  50.719  16.1300  0.00  0.00     0.000 OA
ENDBRANCH 83 92
BRANCH 79 95
ATOM     95  O4  SGN B   6     -18.646  53.292  12.4540  0.00  0.00     0.000 O
BRANCH 95 99
ATOM     96  C1  SGN B   6     -18.866  56.736  14.7560  0.00  0.00     0.000 C
ATOM     97  C2  SGN B   6     -19.589  55.515  15.3120  0.00  0.00     0.000 C
ATOM     98  C3  SGN B   6     -18.946  54.292  14.6580  0.00  0.00     0.000 C
ATOM     99  C4  SGN B   6     -19.238  54.384  13.1330  0.00  0.00     0.000 C
ATOM    100  C5  SGN B   6     -18.581  55.703  12.6340  0.00  0.00     0.000 C
ATOM    101  O5  SGN B   6     -19.063  56.831  13.3580  0.00  0.00     0.000 O
BRANCH 97 104
ATOM    102   N  SGN B   6     -20.268  56.551  16.0970  0.00  0.00     0.000 N
ATOM    104  HD  SGN B   6     -19.798  56.738  16.8000  0.00  0.00     0.000 HD
ATOM    104 @NS  SGN B   6     -20.795  56.142  17.6160  0.00  0.00     0.000 S
ATOM    105   O  SGN B   6     -20.411  54.769  17.8590  0.00  0.00     0.000 OA
ATOM    106   O  SGN B   6     -20.162  57.058  18.5370  0.00  0.00     0.000 OA
ATOM    107   O  SGN B   6     -22.233  56.289  17.5930  0.00  0.00     0.000 OA
ENDBRANCH 97 104
BRANCH 100 108
ATOM    108   C  SGN B   6     -18.780  56.034  11.1600  0.00  0.00     0.000 C
ATOM    109   O  SGN B   6     -20.075  55.653  10.7670  0.00  0.00     0.000 O
ATOM    110  @S  SGN B   6     -20.683  55.814   9.3260  0.00  0.00     0.000 S
ATOM    111   O  SGN B   6     -19.623  55.474   8.4080  0.00  0.00     0.000 OA
ATOM    112   O  SGN B   6     -21.798  54.883   9.2450  0.00  0.00     0.000 OA
ATOM    113   O  SGN B   6     -21.089  57.197   9.2250  0.00  0.00     0.000 OA
ENDBRANCH 100 108
ENDBRANCH 95 99
ENDBRANCH 79 95
ENDBRANCH 78 82
ENDBRANCH 58 78
ENDBRANCH 57 61
ENDBRANCH 41 57
ENDBRANCH 40 44
ENDBRANCH 20 40
ENDBRANCH 19 23
ENDBRANCH 1 19
TORSDOF 22
ENDMDL
MODEL 77
REMARK VINA RESULT:       3.9      2.642      8.044
ROOT
ATOM      1  C1  IDS B   1     -23.898  58.605  10.3930  0.00  0.00     0.000 C
ATOM      2  C2  IDS B   1     -23.370  58.758   8.9900  0.00  0.00     0.000 C
ATOM      3  C3  IDS B   1     -24.337  58.353   7.8520  0.00  0.00     0.000 C
ATOM      4  C4  IDS B   1     -25.858  58.514   8.2250  0.00  0.00     0.000 C
ATOM      5  C5  IDS B   1     -26.120  58.357   9.7420  0.00  0.00     0.000 C
ATOM      6  O5  IDS B   1     -25.207  59.131  10.4720  0.00  0.00     0.000 O
ATOM      7   O  IDS B   1     -24.036  57.005   7.5020  0.00  0.00     0.000 O
ATOM      9  HD  IDS B   1     -24.854  57.186   7.2810  0.00  0.00     0.000 HD
ATOM      9   O  IDS B   1     -26.256  59.813   7.8480  0.00  0.00     0.000 O
ATOM     11  HD  IDS B   1     -27.073  59.994   7.6260  0.00  0.00     0.000 HD
ENDROOT
BRANCH 2 11
ATOM     11   O  IDS B   1     -23.030  60.082   8.7620  0.00  0.00     0.000 O
ATOM     12  @S  IDS B   1     -21.965  60.547   7.7510  0.00  0.00     0.000 S
ATOM     13   O  IDS B   1     -21.064  59.416   7.6520  0.00  0.00     0.000 OA
ATOM     14   O  IDS B   1     -22.662  60.814   6.5050  0.00  0.00     0.000 OA
ATOM     15   O  IDS B   1     -21.364  61.734   8.3260  0.00  0.00     0.000 OA
ENDBRANCH 2 11
BRANCH 5 16
ATOM     16 @CA  IDS B   1     -27.539  58.645  10.2230  0.00  0.00     0.000 C
ATOM     17   O  IDS B   1     -28.007  59.781  10.2050  0.00  0.00     0.000 OA
ATOM     18   O  IDS B   1     -28.257  57.734  10.6290  0.00  0.00     0.000 OA
ENDBRANCH 5 16
BRANCH 1 19
ATOM     19  O4  SGN B   2     -23.888  57.230  10.7150  0.00  0.00     0.000 O
BRANCH 19 23
ATOM     20  C1  SGN B   2     -22.780  55.143  14.0580  0.00  0.00     0.000 C
ATOM     21  C2  SGN B   2     -23.845  56.209  14.1870  0.00  0.00     0.000 C
ATOM     22  C3  SGN B   2     -24.500  56.415  12.8690  0.00  0.00     0.000 C
ATOM     23  C4  SGN B   2     -23.398  56.930  11.9720  0.00  0.00     0.000 C
ATOM     24  C5  SGN B   2     -22.443  55.795  11.8340  0.00  0.00     0.000 C
ATOM     25  O5  SGN B   2     -21.853  55.541  13.0570  0.00  0.00     0.000 O
ATOM     26   O  SGN B   2     -25.503  57.361  12.9950  0.00  0.00     0.000 O
ATOM     28  HD  SGN B   2     -26.004  58.067  12.9840  0.00  0.00     0.000 HD
BRANCH 21 30
ATOM     28   N  SGN B   2     -24.785  56.527  15.2220  0.00  0.00     0.000 N
ATOM     30  HD  SGN B   2     -24.556  57.351  15.3580  0.00  0.00     0.000 HD
ATOM     30 @NS  SGN B   2     -24.351  56.166  16.7460  0.00  0.00     0.000 S
ATOM     31   O  SGN B   2     -22.998  55.722  16.7560  0.00  0.00     0.000 OA
ATOM     32   O  SGN B   2     -24.499  57.385  17.4290  0.00  0.00     0.000 OA
ATOM     33   O  SGN B   2     -25.227  55.142  17.1750  0.00  0.00     0.000 OA
ENDBRANCH 21 30
BRANCH 24 34
ATOM     34   C  SGN B   2     -21.342  56.006  10.8620  0.00  0.00     0.000 C
ATOM     35   O  SGN B   2     -20.182  55.513  11.4330  0.00  0.00     0.000 O
ATOM     36  @S  SGN B   2     -18.873  55.349  10.6690  0.00  0.00     0.000 S
ATOM     37   O  SGN B   2     -18.176  56.601  10.8830  0.00  0.00     0.000 OA
ATOM     38   O  SGN B   2     -18.199  54.206  11.2400  0.00  0.00     0.000 OA
ATOM     39   O  SGN B   2     -19.265  55.122   9.2850  0.00  0.00     0.000 OA
ENDBRANCH 24 34
BRANCH 20 40
ATOM     40  O4  IDS B   3     -23.356  53.911  13.7520  0.00  0.00     0.000 O
BRANCH 40 44
ATOM     41  C1  IDS B   3     -23.626  50.419  13.9610  0.00  0.00     0.000 C
ATOM     42  C2  IDS B   3     -24.875  51.286  13.8170  0.00  0.00     0.000 C
ATOM     43  C3  IDS B   3     -24.948  52.510  14.7510  0.00  0.00     0.000 C
ATOM     44  C4  IDS B   3     -23.588  53.162  14.8980  0.00  0.00     0.000 C
ATOM     45  C5  IDS B   3     -22.468  52.126  15.0860  0.00  0.00     0.000 C
ATOM     46  O5  IDS B   3     -22.462  51.230  14.0350  0.00  0.00     0.000 O
ATOM     47   O  IDS B   3     -25.383  52.098  16.0290  0.00  0.00     0.000 O
ATOM     49  HD  IDS B   3     -25.267  52.652  15.3740  0.00  0.00     0.000 HD
BRANCH 42 49
ATOM     49   O  IDS B   3     -24.935  51.766  12.5040  0.00  0.00     0.000 O
ATOM     50   O  IDS B   3     -25.991  49.790  11.7770  0.00  0.00     0.000 OA
ATOM     51   O  IDS B   3     -26.688  51.866  10.8780  0.00  0.00     0.000 OA
ATOM     52   O  IDS B   3     -24.557  50.995  10.3540  0.00  0.00     0.000 OA
ATOM     53  @S  IDS B   3     -25.586  51.064  11.3090  0.00  0.00     0.000 S
ENDBRANCH 42 49
BRANCH 45 54
ATOM     54 @CA  IDS B   3     -21.068  52.704  15.2770  0.00  0.00     0.000 C
ATOM     55   O  IDS B   3     -20.721  53.185  16.3220  0.00  0.00     0.000 OA
ATOM     56   O  IDS B   3     -20.265  52.676  14.4040  0.00  0.00     0.000 OA
ENDBRANCH 45 54
BRANCH 41 57
ATOM     57  O4  SGN B   4     -23.753  49.600  15.0760  0.00  0.00     0.000 O
BRANCH 57 61
ATOM     58  C1  SGN B   4     -20.600  47.095  14.1930  0.00  0.00     0.000 C
ATOM     59  C2  SGN B   4     -21.880  46.838  13.4160  0.00  0.00     0.000 C
ATOM     60  C3  SGN B   4     -22.811  48.041  13.5390  0.00  0.00     0.000 C
ATOM     61  C4  SGN B   4     -23.087  48.378  15.0090  0.00  0.00     0.000 C
ATOM     62  C5  SGN B   4     -21.742  48.525  15.7150  0.00  0.00     0.000 C
ATOM     63  O5  SGN B   4     -20.941  47.371  15.5410  0.00  0.00     0.000 O
ATOM     64   O  SGN B   4     -24.038  47.732  12.9110  0.00  0.00     0.000 O
ATOM     66  HD  SGN B   4     -24.744  47.756  13.4130  0.00  0.00     0.000 HD
BRANCH 59 68
ATOM     66   N  SGN B   4     -21.839  45.495  12.8730  0.00  0.00     0.000 N
ATOM     68  HD  SGN B   4     -21.538  45.911  13.5700  0.00  0.00     0.000 HD
ATOM     68 @NS  SGN B   4     -20.872  45.158  11.5930  0.00  0.00     0.000 S
ATOM     69   O  SGN B   4     -20.895  46.281  10.7020  0.00  0.00     0.000 OA
ATOM     70   O  SGN B   4     -19.559  44.945  12.1300  0.00  0.00     0.000 OA
ATOM     71   O  SGN B   4     -21.446  43.981  11.0140  0.00  0.00     0.000 OA
ENDBRANCH 59 68
BRANCH 62 72
ATOM     72   C  SGN B   4     -21.882  48.737  17.2150  0.00  0.00     0.000 C
ATOM     73   O  SGN B   4     -21.322  47.602  17.8080  0.00  0.00     0.000 O
ATOM     74  @S  SGN B   4     -20.597  47.515  19.1620  0.00  0.00     0.000 S
ATOM     75   O  SGN B   4     -21.500  47.965  20.1550  0.00  0.00     0.000 OA
ATOM     76   O  SGN B   4     -20.283  46.125  19.3020  0.00  0.00     0.000 OA
ATOM     77   O  SGN B   4     -19.469  48.378  19.0550  0.00  0.00     0.000 OA
ENDBRANCH 62 72
BRANCH 58 78
ATOM     78  O4  IDS B   5     -19.872  48.149  13.5970  0.00  0.00     0.000 O
BRANCH 78 82
ATOM     79  C1  IDS B   5     -17.624  50.461  12.3320  0.00  0.00     0.000 C
ATOM     80  C2  IDS B   5     -18.045  49.305  11.4770  0.00  0.00     0.000 C
ATOM     81  C3  IDS B   5     -17.934  47.951  12.1720  0.00  0.00     0.000 C
ATOM     82  C4  IDS B   5     -18.471  47.975  13.5880  0.00  0.00     0.000 C
ATOM     83  C5  IDS B   5     -17.838  49.133  14.2910  0.00  0.00     0.000 C
ATOM     84  O5  IDS B   5     -18.182  50.335  13.6270  0.00  0.00     0.000 O
ATOM     85   O  IDS B   5     -16.570  47.613  12.2390  0.00  0.00     0.000 O
ATOM     87  HD  IDS B   5     -17.148  47.649  12.8820  0.00  0.00     0.000 HD
BRANCH 80 87
ATOM     87   O  IDS B   5     -19.366  49.476  11.1430  0.00  0.00     0.000 O
ATOM     88  @S  IDS B   5     -19.927  49.867   9.7740  0.00  0.00     0.000 S
ATOM     89   O  IDS B   5     -19.366  48.933   8.8660  0.00  0.00     0.000 OA
ATOM     90   O  IDS B   5     -21.339  49.779   9.9050  0.00  0.00     0.000 OA
ATOM     91   O  IDS B   5     -19.495  51.201   9.5390  0.00  0.00     0.000 OA
ENDBRANCH 80 87
BRANCH 83 92
ATOM     92 @CA  IDS B   5     -18.135  49.181  15.7850  0.00  0.00     0.000 C
ATOM     93   O  IDS B   5     -18.588  50.202  16.3090  0.00  0.00     0.000 OA
ATOM     94   O  IDS B   5     -17.922  48.196  16.5010  0.00  0.00     0.000 OA
ENDBRANCH 83 92
BRANCH 79 95
ATOM     95  O4  SGN B   6     -16.237  50.534  12.3620  0.00  0.00     0.000 O
BRANCH 95 99
ATOM     96  C1  SGN B   6     -13.731  53.614  13.5620  0.00  0.00     0.000 C
ATOM     97  C2  SGN B   6     -15.199  53.764  13.9410  0.00  0.00     0.000 C
ATOM     98  C3  SGN B   6     -15.801  52.359  13.9210  0.00  0.00     0.000 C
ATOM     99  C4  SGN B   6     -15.721  51.849  12.4540  0.00  0.00     0.000 C
ATOM    100  C5  SGN B   6     -14.212  51.825  12.0740  0.00  0.00     0.000 C
ATOM    101  O5  SGN B   6     -13.611  53.104  12.2480  0.00  0.00     0.000 O
BRANCH 97 104
ATOM    102   N  SGN B   6     -14.667  54.726  14.9110  0.00  0.00     0.000 N
ATOM    104  HD  SGN B   6     -15.187  54.762  15.6020  0.00  0.00     0.000 HD
ATOM    104 @NS  SGN B   6     -15.576  56.076  15.2330  0.00  0.00     0.000 S
ATOM    105   O  SGN B   6     -16.794  55.981  14.4570  0.00  0.00     0.000 OA
ATOM    106   O  SGN B   6     -15.833  56.075  16.6550  0.00  0.00     0.000 OA
ATOM    107   O  SGN B   6     -14.775  57.206  14.8170  0.00  0.00     0.000 OA
ENDBRANCH 97 104
BRANCH 100 108
ATOM    108   C  SGN B   6     -13.888  51.400  10.6460  0.00  0.00     0.000 C
ATOM    109   O  SGN B   6     -13.203  52.440   9.9940  0.00  0.00     0.000 O
ATOM    110  @S  SGN B   6     -12.691  52.414   8.5090  0.00  0.00     0.000 S
ATOM    111   O  SGN B   6     -13.731  51.771   7.7420  0.00  0.00     0.000 OA
ATOM    112   O  SGN B   6     -12.500  53.802   8.1160  0.00  0.00     0.000 OA
ATOM    113   O  SGN B   6     -11.462  51.655   8.5310  0.00  0.00     0.000 OA
ENDBRANCH 100 108
ENDBRANCH 95 99
ENDBRANCH 79 95
ENDBRANCH 78 82
ENDBRANCH 58 78
ENDBRANCH 57 61
ENDBRANCH 41 57
ENDBRANCH 40 44
ENDBRANCH 20 40
ENDBRANCH 19 23
ENDBRANCH 1 19
TORSDOF 22
ENDMDL
MODEL 78
REMARK VINA RESULT:       3.9      3.090      9.963
ROOT
ATOM      1  C1  IDS B   1     -22.562  48.405  15.8370  0.00  0.00     0.000 C
ATOM      2  C2  IDS B   1     -23.738  47.701  15.2120  0.00  0.00     0.000 C
ATOM      3  C3  IDS B   1     -24.078  46.305  15.7860  0.00  0.00     0.000 C
ATOM      4  C4  IDS B   1     -23.664  46.122  17.2940  0.00  0.00     0.000 C
ATOM      5  C5  IDS B   1     -22.452  47.000  17.6900  0.00  0.00     0.000 C
ATOM      6  O5  IDS B   1     -22.644  48.316  17.2450  0.00  0.00     0.000 O
ATOM      7   O  IDS B   1     -23.436  45.340  14.9590  0.00  0.00     0.000 O
ATOM      9  HD  IDS B   1     -23.573  45.002  15.7440  0.00  0.00     0.000 HD
ATOM      9   O  IDS B   1     -24.761  46.511  18.0900  0.00  0.00     0.000 O
ATOM     11  HD  IDS B   1     -24.898  46.173  18.8750  0.00  0.00     0.000 HD
ENDROOT
BRANCH 2 11
ATOM     11   O  IDS B   1     -24.878  48.475  15.3610  0.00  0.00     0.000 O
ATOM     12  @S  IDS B   1     -26.085  48.442  14.4040  0.00  0.00     0.000 S
ATOM     13   O  IDS B   1     -25.515  48.015  13.1420  0.00  0.00     0.000 OA
ATOM     14   O  IDS B   1     -27.021  47.475  14.9480  0.00  0.00     0.000 OA
ATOM     15   O  IDS B   1     -26.614  49.791  14.3880  0.00  0.00     0.000 OA
ENDBRANCH 2 11
BRANCH 5 16
ATOM     16 @CA  IDS B   1     -22.069  47.006  19.1670  0.00  0.00     0.000 C
ATOM     17   O  IDS B   1     -21.534  47.981  19.6900  0.00  0.00     0.000 OA
ATOM     18   O  IDS B   1     -22.304  46.031  19.8760  0.00  0.00     0.000 OA
ENDBRANCH 5 16
BRANCH 1 19
ATOM     19  O4  SGN B   2     -21.382  47.792  15.3610  0.00  0.00     0.000 O
BRANCH 19 23
ATOM     20  C1  SGN B   2     -20.189  50.866  12.9350  0.00  0.00     0.000 C
ATOM     21  C2  SGN B   2     -20.325  49.482  12.3400  0.00  0.00     0.000 C
ATOM     22  C3  SGN B   2     -21.280  48.685  13.1550  0.00  0.00     0.000 C
ATOM     23  C4  SGN B   2     -20.622  48.573  14.5110  0.00  0.00     0.000 C
ATOM     24  C5  SGN B   2     -20.607  49.960  15.0540  0.00  0.00     0.000 C
ATOM     25  O5  SGN B   2     -19.767  50.744  14.2860  0.00  0.00     0.000 O
ATOM     26   O  SGN B   2     -21.436  47.432  12.5880  0.00  0.00     0.000 O
ATOM     28  HD  SGN B   2     -21.422  46.591  12.3800  0.00  0.00     0.000 HD
BRANCH 21 30
ATOM     28   N  SGN B   2     -19.245  49.392  11.4010  0.00  0.00     0.000 N
ATOM     30  HD  SGN B   2     -18.871  50.157  11.5590  0.00  0.00     0.000 HD
ATOM     30 @NS  SGN B   2     -19.552  49.869   9.8780  0.00  0.00     0.000 S
ATOM     31   O  SGN B   2     -20.853  50.446   9.8210  0.00  0.00     0.000 OA
ATOM     32   O  SGN B   2     -18.552  50.823   9.6240  0.00  0.00     0.000 OA
ATOM     33   O  SGN B   2     -19.474  48.707   9.0770  0.00  0.00     0.000 OA
ENDBRANCH 21 30
BRANCH 24 34
ATOM     34   C  SGN B   2     -20.146  50.088  16.4590  0.00  0.00     0.000 C
ATOM     35   O  SGN B   2     -18.922  49.452  16.5560  0.00  0.00     0.000 O
ATOM     36  @S  SGN B   2     -18.022  49.545  17.7830  0.00  0.00     0.000 S
ATOM     37   O  SGN B   2     -18.417  48.416  18.6010  0.00  0.00     0.000 OA
ATOM     38   O  SGN B   2     -16.661  49.466  17.3070  0.00  0.00     0.000 OA
ATOM     39   O  SGN B   2     -18.322  50.839  18.3800  0.00  0.00     0.000 OA
ENDBRANCH 24 34
BRANCH 20 40
ATOM     40  O4  IDS B   3     -21.397  51.558  12.8430  0.00  0.00     0.000 O
BRANCH 40 44
ATOM     41  C1  IDS B   3     -22.335  54.849  12.0730  0.00  0.00     0.000 C
ATOM     42  C2  IDS B   3     -20.865  54.434  12.0410  0.00  0.00     0.000 C
ATOM     43  C3  IDS B   3     -20.374  53.625  13.2570  0.00  0.00     0.000 C
ATOM     44  C4  IDS B   3     -21.429  52.638  13.7140  0.00  0.00     0.000 C
ATOM     45  C5  IDS B   3     -22.835  53.260  13.7300  0.00  0.00     0.000 C
ATOM     46  O5  IDS B   3     -23.151  53.761  12.4820  0.00  0.00     0.000 O
ATOM     47   O  IDS B   3     -20.100  54.507  14.3250  0.00  0.00     0.000 O
ATOM     49  HD  IDS B   3     -20.023  53.781  13.8600  0.00  0.00     0.000 HD
BRANCH 42 49
ATOM     49   O  IDS B   3     -20.651  53.642  10.9070  0.00  0.00     0.000 O
ATOM     50   O  IDS B   3     -20.228  55.551   9.5930  0.00  0.00     0.000 OA
ATOM     51   O  IDS B   3     -18.933  53.601   9.2420  0.00  0.00     0.000 OA
ATOM     52   O  IDS B   3     -21.221  53.632   8.6630  0.00  0.00     0.000 OA
ATOM     53  @S  IDS B   3     -20.229  54.136   9.5200  0.00  0.00     0.000 S
ENDBRANCH 42 49
BRANCH 45 54
ATOM     54 @CA  IDS B   3     -23.952  52.339  14.2130  0.00  0.00     0.000 C
ATOM     55   O  IDS B   3     -23.747  51.462  15.0080  0.00  0.00     0.000 OA
ATOM     56   O  IDS B   3     -25.069  52.473  13.8350  0.00  0.00     0.000 OA
ENDBRANCH 45 54
BRANCH 41 57
ATOM     57  O4  SGN B   4     -22.490  55.950  12.9070  0.00  0.00     0.000 O
BRANCH 57 61
ATOM     58  C1  SGN B   4     -26.036  57.309  11.3040  0.00  0.00     0.000 C
ATOM     59  C2  SGN B   4     -24.790  57.606  10.4870  0.00  0.00     0.000 C
ATOM     60  C3  SGN B   4     -23.635  56.734  10.9690  0.00  0.00     0.000 C
ATOM     61  C4  SGN B   4     -23.396  56.916  12.4720  0.00  0.00     0.000 C
ATOM     62  C5  SGN B   4     -24.724  56.685  13.1890  0.00  0.00     0.000 C
ATOM     63  O5  SGN B   4     -25.739  57.526  12.6730  0.00  0.00     0.000 O
ATOM     64   O  SGN B   4     -22.462  57.111  10.2790  0.00  0.00     0.000 O
ATOM     66  HD  SGN B   4     -21.804  57.395  10.7650  0.00  0.00     0.000 HD
BRANCH 59 68
ATOM     66   N  SGN B   4     -25.007  58.658   9.5140  0.00  0.00     0.000 N
ATOM     68  HD  SGN B   4     -25.253  58.478  10.3250  0.00  0.00     0.000 HD
ATOM     68 @NS  SGN B   4     -26.007  58.404   8.2390  0.00  0.00     0.000 S
ATOM     69   O  SGN B   4     -25.832  57.053   7.7930  0.00  0.00     0.000 OA
ATOM     70   O  SGN B   4     -27.338  58.624   8.7260  0.00  0.00     0.000 OA
ATOM     71   O  SGN B   4     -25.591  59.366   7.2650  0.00  0.00     0.000 OA
ENDBRANCH 59 68
BRANCH 62 72
ATOM     72   C  SGN B   4     -24.645  56.962  14.6820  0.00  0.00     0.000 C
ATOM     73   O  SGN B   4     -25.030  55.772  15.3040  0.00  0.00     0.000 O
ATOM     74  @S  SGN B   4     -24.547  55.225  16.6590  0.00  0.00     0.000 S
ATOM     75   O  SGN B   4     -24.855  56.198  17.6410  0.00  0.00     0.000 OA
ATOM     76   O  SGN B   4     -25.295  54.018  16.8370  0.00  0.00     0.000 OA
ATOM     77   O  SGN B   4     -23.140  55.048  16.5270  0.00  0.00     0.000 OA
ENDBRANCH 62 72
BRANCH 58 78
ATOM     78  O4  IDS B   5     -26.480  55.991  11.0530  0.00  0.00     0.000 O
BRANCH 78 82
ATOM     79  C1  IDS B   5     -28.280  53.032  10.9850  0.00  0.00     0.000 C
ATOM     80  C2  IDS B   5     -27.633  53.525   9.7270  0.00  0.00     0.000 C
ATOM     81  C3  IDS B   5     -27.935  54.987   9.4100  0.00  0.00     0.000 C
ATOM     82  C4  IDS B   5     -27.821  55.885  10.6260  0.00  0.00     0.000 C
ATOM     83  C5  IDS B   5     -28.628  55.264  11.7210  0.00  0.00     0.000 C
ATOM     84  O5  IDS B   5     -28.111  53.982  12.0220  0.00  0.00     0.000 O
ATOM     85   O  IDS B   5     -29.263  55.062   8.9490  0.00  0.00     0.000 O
ATOM     87  HD  IDS B   5     -28.890  55.506   9.5920  0.00  0.00     0.000 HD
BRANCH 80 87
ATOM     87   O  IDS B   5     -26.272  53.421   9.8740  0.00  0.00     0.000 O
ATOM     88  @S  IDS B   5     -25.435  52.140   9.8200  0.00  0.00     0.000 S
ATOM     89   O  IDS B   5     -25.789  51.521   8.5940  0.00  0.00     0.000 OA
ATOM     90   O  IDS B   5     -24.083  52.570   9.8880  0.00  0.00     0.000 OA
ATOM     91   O  IDS B   5     -25.810  51.377  10.9590  0.00  0.00     0.000 OA
ENDBRANCH 80 87
BRANCH 83 92
ATOM     92 @CA  IDS B   5     -28.766  56.146  12.9570  0.00  0.00     0.000 C
ATOM     93   O  IDS B   5     -28.149  55.888  13.9930  0.00  0.00     0.000 OA
ATOM     94   O  IDS B   5     -29.505  57.138  12.9430  0.00  0.00     0.000 OA
ENDBRANCH 83 92
BRANCH 79 95
ATOM     95  O4  SGN B   6     -29.618  52.754  10.7410  0.00  0.00     0.000 O
BRANCH 95 99
ATOM     96  C1  SGN B   6     -32.577  50.458  12.5260  0.00  0.00     0.000 C
ATOM     97  C2  SGN B   6     -32.037  51.615  13.3590  0.00  0.00     0.000 C
ATOM     98  C3  SGN B   6     -31.423  52.612  12.3760  0.00  0.00     0.000 C
ATOM     99  C4  SGN B   6     -30.224  51.896  11.6910  0.00  0.00     0.000 C
ATOM    100  C5  SGN B   6     -30.808  50.659  10.9510  0.00  0.00     0.000 C
ATOM    101  O5  SGN B   6     -31.522  49.809  11.8430  0.00  0.00     0.000 O
BRANCH 97 104
ATOM    102   N  SGN B   6     -32.957  50.938  14.2790  0.00  0.00     0.000 N
ATOM    104  HD  SGN B   6     -33.654  51.435  14.4110  0.00  0.00     0.000 HD
ATOM    104 @NS  SGN B   6     -33.237  51.653  15.7500  0.00  0.00     0.000 S
ATOM    105   O  SGN B   6     -32.485  52.889  15.7870  0.00  0.00     0.000 OA
ATOM    106   O  SGN B   6     -34.661  51.878  15.8390  0.00  0.00     0.000 OA
ATOM    107   O  SGN B   6     -32.761  50.719  16.7450  0.00  0.00     0.000 OA
ENDBRANCH 97 104
BRANCH 100 108
ATOM    108   C  SGN B   6     -29.799  49.766  10.2380  0.00  0.00     0.000 C
ATOM    109   O  SGN B   6     -29.594  48.598  10.9940  0.00  0.00     0.000 O
ATOM    110  @S  SGN B   6     -28.626  47.418  10.6180  0.00  0.00     0.000 S
ATOM    111   O  SGN B   6     -27.436  48.036  10.0840  0.00  0.00     0.000 OA
ATOM    112   O  SGN B   6     -28.361  46.696  11.8520  0.00  0.00     0.000 OA
ATOM    113   O  SGN B   6     -29.335  46.628   9.6370  0.00  0.00     0.000 OA
ENDBRANCH 100 108
ENDBRANCH 95 99
ENDBRANCH 79 95
ENDBRANCH 78 82
ENDBRANCH 58 78
ENDBRANCH 57 61
ENDBRANCH 41 57
ENDBRANCH 40 44
ENDBRANCH 20 40
ENDBRANCH 19 23
ENDBRANCH 1 19
TORSDOF 22
ENDMDL
MODEL 79
REMARK VINA RESULT:       3.9      4.396      8.147
ROOT
ATOM      1  C1  IDS B   1     -12.110  59.158  15.3670  0.00  0.00     0.000 C
ATOM      2  C2  IDS B   1     -12.729  60.418  15.9140  0.00  0.00     0.000 C
ATOM      3  C3  IDS B   1     -12.899  60.481  17.4500  0.00  0.00     0.000 C
ATOM      4  C4  IDS B   1     -11.838  59.626  18.2400  0.00  0.00     0.000 C
ATOM      5  C5  IDS B   1     -11.326  58.411  17.4280  0.00  0.00     0.000 C
ATOM      6  O5  IDS B   1     -10.973  58.812  16.1320  0.00  0.00     0.000 O
ATOM      7   O  IDS B   1     -14.224  60.051  17.7470  0.00  0.00     0.000 O
ATOM      9  HD  IDS B   1     -13.717  59.926  18.4380  0.00  0.00     0.000 HD
ATOM      9   O  IDS B   1     -10.735  60.460  18.5150  0.00  0.00     0.000 O
ATOM     11  HD  IDS B   1     -10.228  60.336  19.2070  0.00  0.00     0.000 HD
ENDROOT
BRANCH 2 11
ATOM     11   O  IDS B   1     -11.953  61.510  15.5600  0.00  0.00     0.000 O
ATOM     12  @S  IDS B   1     -12.462  62.712  14.7410  0.00  0.00     0.000 S
ATOM     13   O  IDS B   1     -13.550  62.163  13.9590  0.00  0.00     0.000 OA
ATOM     14   O  IDS B   1     -12.910  63.708  15.6980  0.00  0.00     0.000 OA
ATOM     15   O  IDS B   1     -11.331  63.160  13.9520  0.00  0.00     0.000 OA
ENDBRANCH 2 11
BRANCH 5 16
ATOM     16 @CA  IDS B   1     -10.186  57.609  18.0480  0.00  0.00     0.000 C
ATOM     17   O  IDS B   1     -10.366  56.485  18.5110  0.00  0.00     0.000 OA
ATOM     18   O  IDS B   1      -9.048  58.069  18.0840  0.00  0.00     0.000 OA
ENDBRANCH 5 16
BRANCH 1 19
ATOM     19  O4  SGN B   2     -13.082  58.135  15.4190  0.00  0.00     0.000 O
BRANCH 19 23
ATOM     20  C1  SGN B   2     -14.750  55.704  12.5790  0.00  0.00     0.000 C
ATOM     21  C2  SGN B   2     -13.257  55.632  12.8110  0.00  0.00     0.000 C
ATOM     22  C3  SGN B   2     -12.948  56.099  14.1880  0.00  0.00     0.000 C
ATOM     23  C4  SGN B   2     -13.376  57.549  14.2020  0.00  0.00     0.000 C
ATOM     24  C5  SGN B   2     -14.857  57.521  14.0520  0.00  0.00     0.000 C
ATOM     25  O5  SGN B   2     -15.182  57.040  12.7980  0.00  0.00     0.000 O
ATOM     26   O  SGN B   2     -11.587  55.995  14.4160  0.00  0.00     0.000 O
ATOM     28  HD  SGN B   2     -10.739  56.121  14.5370  0.00  0.00     0.000 HD
BRANCH 21 30
ATOM     28   N  SGN B   2     -13.116  54.242  12.4860  0.00  0.00     0.000 N
ATOM     30  HD  SGN B   2     -12.336  54.105  12.8360  0.00  0.00     0.000 HD
ATOM     30 @NS  SGN B   2     -12.511  53.886  11.0210  0.00  0.00     0.000 S
ATOM     31   O  SGN B   2     -12.085  55.087  10.3850  0.00  0.00     0.000 OA
ATOM     32   O  SGN B   2     -11.426  53.041  11.3080  0.00  0.00     0.000 OA
ATOM     33   O  SGN B   2     -13.560  53.271  10.2990  0.00  0.00     0.000 OA
ENDBRANCH 21 30
BRANCH 24 34
ATOM     34   C  SGN B   2     -15.536  58.833  14.1960  0.00  0.00     0.000 C
ATOM     35   O  SGN B   2     -16.389  58.745  15.2810  0.00  0.00     0.000 O
ATOM     36  @S  SGN B   2     -17.106  59.946  15.8870  0.00  0.00     0.000 S
ATOM     37   O  SGN B   2     -18.373  59.995  15.1850  0.00  0.00     0.000 OA
ATOM     38   O  SGN B   2     -17.238  59.682  17.3010  0.00  0.00     0.000 OA
ATOM     39   O  SGN B   2     -16.238  61.084  15.6170  0.00  0.00     0.000 OA
ENDBRANCH 24 34
BRANCH 20 40
ATOM     40  O4  IDS B   3     -15.419  54.811  13.4150  0.00  0.00     0.000 O
BRANCH 40 44
ATOM     41  C1  IDS B   3     -17.395  52.011  14.1640  0.00  0.00     0.000 C
ATOM     42  C2  IDS B   3     -16.542  52.042  12.8970  0.00  0.00     0.000 C
ATOM     43  C3  IDS B   3     -16.635  53.334  12.0620  0.00  0.00     0.000 C
ATOM     44  C4  IDS B   3     -16.705  54.555  12.9570  0.00  0.00     0.000 C
ATOM     45  C5  IDS B   3     -17.655  54.346  14.1460  0.00  0.00     0.000 C
ATOM     46  O5  IDS B   3     -17.276  53.235  14.8750  0.00  0.00     0.000 O
ATOM     47   O  IDS B   3     -17.805  53.296  11.2720  0.00  0.00     0.000 O
ATOM     49  HD  IDS B   3     -16.999  53.535  11.4810  0.00  0.00     0.000 HD
BRANCH 42 49
ATOM     49   O  IDS B   3     -15.200  51.882  13.2610  0.00  0.00     0.000 O
ATOM     50   O  IDS B   3     -15.385  49.539  13.1050  0.00  0.00     0.000 OA
ATOM     51   O  IDS B   3     -13.402  50.591  12.3520  0.00  0.00     0.000 OA
ATOM     52   O  IDS B   3     -13.925  50.542  14.6530  0.00  0.00     0.000 OA
ATOM     53  @S  IDS B   3     -14.432  50.560  13.3430  0.00  0.00     0.000 S
ENDBRANCH 42 49
BRANCH 45 54
ATOM     54 @CA  IDS B   3     -17.808  55.545  15.0800  0.00  0.00     0.000 C
ATOM     55   O  IDS B   3     -18.550  56.454  14.8210  0.00  0.00     0.000 OA
ATOM     56   O  IDS B   3     -17.215  55.608  16.1050  0.00  0.00     0.000 OA
ENDBRANCH 45 54
BRANCH 41 57
ATOM     57  O4  SGN B   4     -18.715  51.737  13.8300  0.00  0.00     0.000 O
BRANCH 57 61
ATOM     58  C1  SGN B   4     -21.509  48.721  14.1370  0.00  0.00     0.000 C
ATOM     59  C2  SGN B   4     -20.972  49.255  15.4550  0.00  0.00     0.000 C
ATOM     60  C3  SGN B   4     -20.272  50.591  15.2240  0.00  0.00     0.000 C
ATOM     61  C4  SGN B   4     -19.173  50.463  14.1630  0.00  0.00     0.000 C
ATOM     62  C5  SGN B   4     -19.795  49.835  12.9190  0.00  0.00     0.000 C
ATOM     63  O5  SGN B   4     -20.430  48.608  13.2250  0.00  0.00     0.000 O
ATOM     64   O  SGN B   4     -19.679  51.009  16.4370  0.00  0.00     0.000 O
ATOM     66  HD  SGN B   4     -18.820  51.116  16.4280  0.00  0.00     0.000 HD
BRANCH 59 68
ATOM     66   N  SGN B   4     -22.134  49.393  16.3080  0.00  0.00     0.000 N
ATOM     68  HD  SGN B   4     -21.290  49.584  16.3430  0.00  0.00     0.000 HD
ATOM     68 @NS  SGN B   4     -22.748  48.081  17.0780  0.00  0.00     0.000 S
ATOM     69   O  SGN B   4     -22.647  46.955  16.1970  0.00  0.00     0.000 OA
ATOM     70   O  SGN B   4     -21.946  47.897  18.2530  0.00  0.00     0.000 OA
ATOM     71   O  SGN B   4     -24.103  48.440  17.3640  0.00  0.00     0.000 OA
ENDBRANCH 59 68
BRANCH 62 72
ATOM     72   C  SGN B   4     -18.773  49.539  11.8320  0.00  0.00     0.000 C
ATOM     73   O  SGN B   4     -18.959  48.196  11.4980  0.00  0.00     0.000 O
ATOM     74  @S  SGN B   4     -18.740  47.532  10.1280  0.00  0.00     0.000 S
ATOM     75   O  SGN B   4     -17.390  47.754   9.7620  0.00  0.00     0.000 OA
ATOM     76   O  SGN B   4     -19.019  46.147  10.3590  0.00  0.00     0.000 OA
ATOM     77   O  SGN B   4     -19.634  48.185   9.2320  0.00  0.00     0.000 OA
ENDBRANCH 62 72
BRANCH 58 78
ATOM     78  O4  IDS B   5     -22.536  49.562  13.6530  0.00  0.00     0.000 O
BRANCH 78 82
ATOM     79  C1  IDS B   5     -25.390  51.132  12.4760  0.00  0.00     0.000 C
ATOM     80  C2  IDS B   5     -25.398  50.531  13.8480  0.00  0.00     0.000 C
ATOM     81  C3  IDS B   5     -24.891  49.092  13.8930  0.00  0.00     0.000 C
ATOM     82  C4  IDS B   5     -23.633  48.889  13.0740  0.00  0.00     0.000 C
ATOM     83  C5  IDS B   5     -23.884  49.460  11.7140  0.00  0.00     0.000 C
ATOM     84  O5  IDS B   5     -24.165  50.842  11.8260  0.00  0.00     0.000 O
ATOM     85   O  IDS B   5     -25.892  48.266  13.3490  0.00  0.00     0.000 O
ATOM     87  HD  IDS B   5     -25.058  48.321  13.1240  0.00  0.00     0.000 HD
BRANCH 80 87
ATOM     87   O  IDS B   5     -24.565  51.274  14.6480  0.00  0.00     0.000 O
ATOM     88  @S  IDS B   5     -24.978  52.253  15.7490  0.00  0.00     0.000 S
ATOM     89   O  IDS B   5     -25.847  51.514  16.5930  0.00  0.00     0.000 OA
ATOM     90   O  IDS B   5     -23.766  52.657  16.3700  0.00  0.00     0.000 OA
ATOM     91   O  IDS B   5     -25.626  53.333  15.0910  0.00  0.00     0.000 OA
ENDBRANCH 80 87
BRANCH 83 92
ATOM     92 @CA  IDS B   5     -22.775  49.166  10.7110  0.00  0.00     0.000 C
ATOM     93   O  IDS B   5     -22.189  50.080  10.1270  0.00  0.00     0.000 OA
ATOM     94   O  IDS B   5     -22.445  48.000  10.4610  0.00  0.00     0.000 OA
ENDBRANCH 83 92
BRANCH 79 95
ATOM     95  O4  SGN B   6     -26.487  50.671  11.7610  0.00  0.00     0.000 O
BRANCH 95 99
ATOM     96  C1  SGN B   6     -27.565  52.129   8.0290  0.00  0.00     0.000 C
ATOM     97  C2  SGN B   6     -26.492  52.919   8.7690  0.00  0.00     0.000 C
ATOM     98  C3  SGN B   6     -25.868  51.963   9.7860  0.00  0.00     0.000 C
ATOM     99  C4  SGN B   6     -26.986  51.582  10.7990  0.00  0.00     0.000 C
ATOM    100  C5  SGN B   6     -28.109  50.883   9.9790  0.00  0.00     0.000 C
ATOM    101  O5  SGN B   6     -28.579  51.717   8.9250  0.00  0.00     0.000 O
BRANCH 97 104
ATOM    102   N  SGN B   6     -26.022  54.308   8.7790  0.00  0.00     0.000 N
ATOM    104  HD  SGN B   6     -26.620  54.820   8.4180  0.00  0.00     0.000 HD
ATOM    104 @NS  SGN B   6     -25.756  55.039   7.3140  0.00  0.00     0.000 S
ATOM    105   O  SGN B   6     -26.104  54.090   6.2790  0.00  0.00     0.000 OA
ATOM    106   O  SGN B   6     -26.593  56.216   7.2790  0.00  0.00     0.000 OA
ATOM    107   O  SGN B   6     -24.347  55.362   7.2780  0.00  0.00     0.000 OA
ENDBRANCH 97 104
BRANCH 100 108
ATOM    108   C  SGN B   6     -29.346  50.460  10.7630  0.00  0.00     0.000 C
ATOM    109   O  SGN B   6     -30.075  51.603  11.1360  0.00  0.00     0.000 O
ATOM    110  @S  SGN B   6     -31.413  51.611  11.9610  0.00  0.00     0.000 S
ATOM    111   O  SGN B   6     -31.253  50.606  12.9850  0.00  0.00     0.000 OA
ATOM    112   O  SGN B   6     -31.543  52.947  12.5200  0.00  0.00     0.000 OA
ATOM    113   O  SGN B   6     -32.457  51.285  11.0160  0.00  0.00     0.000 OA
ENDBRANCH 100 108
ENDBRANCH 95 99
ENDBRANCH 79 95
ENDBRANCH 78 82
ENDBRANCH 58 78
ENDBRANCH 57 61
ENDBRANCH 41 57
ENDBRANCH 40 44
ENDBRANCH 20 40
ENDBRANCH 19 23
ENDBRANCH 1 19
TORSDOF 22
ENDMDL
MODEL 80
REMARK VINA RESULT:       4.0      4.985     10.217
ROOT
ATOM      1  C1  IDS B   1     -16.379  52.361  13.6850  0.00  0.00     0.000 C
ATOM      2  C2  IDS B   1     -15.875  53.049  12.4430  0.00  0.00     0.000 C
ATOM      3  C3  IDS B   1     -16.032  54.588  12.4070  0.00  0.00     0.000 C
ATOM      4  C4  IDS B   1     -16.022  55.259  13.8310  0.00  0.00     0.000 C
ATOM      5  C5  IDS B   1     -16.548  54.315  14.9390  0.00  0.00     0.000 C
ATOM      6  O5  IDS B   1     -15.936  53.058  14.8310  0.00  0.00     0.000 O
ATOM      7   O  IDS B   1     -17.245  54.872  11.7160  0.00  0.00     0.000 O
ATOM      9  HD  IDS B   1     -17.047  55.534  12.2380  0.00  0.00     0.000 HD
ATOM      9   O  IDS B   1     -14.687  55.590  14.1390  0.00  0.00     0.000 O
ATOM     11  HD  IDS B   1     -14.489  56.253  14.6610  0.00  0.00     0.000 HD
ENDROOT
BRANCH 2 11
ATOM     11   O  IDS B   1     -14.523  52.789  12.2830  0.00  0.00     0.000 O
ATOM     12  @S  IDS B   1     -13.862  52.400  10.9460  0.00  0.00     0.000 S
ATOM     13   O  IDS B   1     -14.935  51.775  10.1990  0.00  0.00     0.000 OA
ATOM     14   O  IDS B   1     -13.401  53.634  10.3350  0.00  0.00     0.000 OA
ATOM     15   O  IDS B   1     -12.777  51.502  11.2880  0.00  0.00     0.000 OA
ENDBRANCH 2 11
BRANCH 5 16
ATOM     16 @CA  IDS B   1     -16.437  54.821  16.3740  0.00  0.00     0.000 C
ATOM     17   O  IDS B   1     -16.934  55.889  16.7220  0.00  0.00     0.000 OA
ATOM     18   O  IDS B   1     -15.853  54.155  17.2260  0.00  0.00     0.000 OA
ENDBRANCH 5 16
BRANCH 1 19
ATOM     19  O4  SGN B   2     -17.790  52.333  13.6260  0.00  0.00     0.000 O
BRANCH 19 23
ATOM     20  C1  SGN B   2     -20.540  49.361  14.2280  0.00  0.00     0.000 C
ATOM     21  C2  SGN B   2     -19.867  49.983  15.4320  0.00  0.00     0.000 C
ATOM     22  C3  SGN B   2     -19.397  51.349  15.0840  0.00  0.00     0.000 C
ATOM     23  C4  SGN B   2     -18.364  51.133  14.0020  0.00  0.00     0.000 C
ATOM     24  C5  SGN B   2     -19.124  50.602  12.8370  0.00  0.00     0.000 C
ATOM     25  O5  SGN B   2     -19.621  49.351  13.1450  0.00  0.00     0.000 O
ATOM     26   O  SGN B   2     -18.817  51.935  16.1970  0.00  0.00     0.000 O
ATOM     28  HD  SGN B   2     -18.290  52.263  16.8000  0.00  0.00     0.000 HD
BRANCH 21 30
ATOM     28   N  SGN B   2     -19.929  48.708  16.0850  0.00  0.00     0.000 N
ATOM     30  HD  SGN B   2     -20.555  48.347  15.6080  0.00  0.00     0.000 HD
ATOM     30 @NS  SGN B   2     -20.880  48.598  17.3980  0.00  0.00     0.000 S
ATOM     31   O  SGN B   2     -21.609  49.813  17.5510  0.00  0.00     0.000 OA
ATOM     32   O  SGN B   2     -21.731  47.521  17.1000  0.00  0.00     0.000 OA
ATOM     33   O  SGN B   2     -20.015  48.380  18.4960  0.00  0.00     0.000 OA
ENDBRANCH 21 30
BRANCH 24 34
ATOM     34   C  SGN B   2     -18.344  50.456  11.5820  0.00  0.00     0.000 C
ATOM     35   O  SGN B   2     -18.877  49.389  10.8820  0.00  0.00     0.000 O
ATOM     36  @S  SGN B   2     -18.492  49.051   9.4460  0.00  0.00     0.000 S
ATOM     37   O  SGN B   2     -17.391  48.118   9.5820  0.00  0.00     0.000 OA
ATOM     38   O  SGN B   2     -19.664  48.477   8.8260  0.00  0.00     0.000 OA
ATOM     39   O  SGN B   2     -18.116  50.321   8.8420  0.00  0.00     0.000 OA
ENDBRANCH 24 34
BRANCH 20 40
ATOM     40  O4  IDS B   3     -21.701  50.063  13.9010  0.00  0.00     0.000 O
BRANCH 40 44
ATOM     41  C1  IDS B   3     -25.017  50.907  13.1310  0.00  0.00     0.000 C
ATOM     42  C2  IDS B   3     -24.417  51.278  14.4860  0.00  0.00     0.000 C
ATOM     43  C3  IDS B   3     -23.646  50.153  15.2040  0.00  0.00     0.000 C
ATOM     44  C4  IDS B   3     -22.839  49.333  14.2180  0.00  0.00     0.000 C
ATOM     45  C5  IDS B   3     -23.634  49.017  12.9420  0.00  0.00     0.000 C
ATOM     46  O5  IDS B   3     -24.076  50.185  12.3500  0.00  0.00     0.000 O
ATOM     47   O  IDS B   3     -24.565  49.294  15.8480  0.00  0.00     0.000 O
ATOM     49  HD  IDS B   3     -23.802  49.684  15.7200  0.00  0.00     0.000 HD
BRANCH 42 49
ATOM     49   O  IDS B   3     -23.522  52.337  14.3010  0.00  0.00     0.000 O
ATOM     50   O  IDS B   3     -24.381  53.459  16.1850  0.00  0.00     0.000 OA
ATOM     51   O  IDS B   3     -22.050  53.512  15.7780  0.00  0.00     0.000 OA
ATOM     52   O  IDS B   3     -23.537  54.652  14.3420  0.00  0.00     0.000 OA
ATOM     53  @S  IDS B   3     -23.360  53.560  15.2080  0.00  0.00     0.000 S
ENDBRANCH 42 49
BRANCH 45 54
ATOM     54 @CA  IDS B   3     -22.902  48.163  11.9090  0.00  0.00     0.000 C
ATOM     55   O  IDS B   3     -22.473  48.635  10.8910  0.00  0.00     0.000 OA
ATOM     56   O  IDS B   3     -22.711  47.007  12.0890  0.00  0.00     0.000 OA
ENDBRANCH 45 54
BRANCH 41 57
ATOM     57  O4  SGN B   4     -26.188  50.184  13.3230  0.00  0.00     0.000 O
BRANCH 57 61
ATOM     58  C1  SGN B   4     -29.385  49.449  10.8250  0.00  0.00     0.000 C
ATOM     59  C2  SGN B   4     -28.666  48.218  11.3510  0.00  0.00     0.000 C
ATOM     60  C3  SGN B   4     -27.787  48.600  12.5380  0.00  0.00     0.000 C
ATOM     61  C4  SGN B   4     -26.811  49.721  12.1650  0.00  0.00     0.000 C
ATOM     62  C5  SGN B   4     -27.622  50.867  11.5650  0.00  0.00     0.000 C
ATOM     63  O5  SGN B   4     -28.414  50.423  10.4800  0.00  0.00     0.000 O
ATOM     64   O  SGN B   4     -27.040  47.468  12.9340  0.00  0.00     0.000 O
ATOM     66  HD  SGN B   4     -26.178  47.544  12.9000  0.00  0.00     0.000 HD
BRANCH 59 68
ATOM     66   N  SGN B   4     -28.988  47.092  10.4990  0.00  0.00     0.000 N
ATOM     68  HD  SGN B   4     -28.899  47.949  10.4170  0.00  0.00     0.000 HD
ATOM     68 @NS  SGN B   4     -30.467  46.389  10.5910  0.00  0.00     0.000 S
ATOM     69   O  SGN B   4     -30.874  46.376  11.9650  0.00  0.00     0.000 OA
ATOM     70   O  SGN B   4     -31.343  47.200   9.7950  0.00  0.00     0.000 OA
ATOM     71   O  SGN B   4     -30.269  45.075  10.0590  0.00  0.00     0.000 OA
ENDBRANCH 59 68
BRANCH 62 72
ATOM     72   C  SGN B   4     -26.750  51.995  11.0360  0.00  0.00     0.000 C
ATOM     73   O  SGN B   4     -26.945  52.003   9.6530  0.00  0.00     0.000 O
ATOM     74  @S  SGN B   4     -26.897  53.216   8.7080  0.00  0.00     0.000 S
ATOM     75   O  SGN B   4     -25.616  53.804   8.8390  0.00  0.00     0.000 OA
ATOM     76   O  SGN B   4     -27.107  52.656   7.4070  0.00  0.00     0.000 OA
ATOM     77   O  SGN B   4     -27.922  54.098   9.1560  0.00  0.00     0.000 OA
ENDBRANCH 62 72
BRANCH 58 78
ATOM     78  O4  IDS B   5     -30.304  49.926  11.7880  0.00  0.00     0.000 O
BRANCH 78 82
ATOM     79  C1  IDS B   5     -32.852  51.318  13.6760  0.00  0.00     0.000 C
ATOM     80  C2  IDS B   5     -32.850  49.841  13.4240  0.00  0.00     0.000 C
ATOM     81  C3  IDS B   5     -32.667  49.466  11.9560  0.00  0.00     0.000 C
ATOM     82  C4  IDS B   5     -31.575  50.269  11.2790  0.00  0.00     0.000 C
ATOM     83  C5  IDS B   5     -31.834  51.713  11.5660  0.00  0.00     0.000 C
ATOM     84  O5  IDS B   5     -31.793  51.933  12.9630  0.00  0.00     0.000 O
ATOM     85   O  IDS B   5     -33.875  49.742  11.2890  0.00  0.00     0.000 O
ATOM     87  HD  IDS B   5     -33.076  50.012  11.0920  0.00  0.00     0.000 HD
BRANCH 80 87
ATOM     87   O  IDS B   5     -31.797  49.289  14.1120  0.00  0.00     0.000 O
ATOM     88  @S  IDS B   5     -31.872  48.436  15.3810  0.00  0.00     0.000 S
ATOM     89   O  IDS B   5     -32.783  47.394  15.0700  0.00  0.00     0.000 OA
ATOM     90   O  IDS B   5     -30.542  47.997  15.6190  0.00  0.00     0.000 OA
ATOM     91   O  IDS B   5     -32.341  49.299  16.4080  0.00  0.00     0.000 OA
ENDBRANCH 80 87
BRANCH 83 92
ATOM     92 @CA  IDS B   5     -30.925  52.664  10.7960  0.00  0.00     0.000 C
ATOM     93   O  IDS B   5     -30.296  53.552  11.3780  0.00  0.00     0.000 OA
ATOM     94   O  IDS B   5     -30.805  52.565   9.5690  0.00  0.00     0.000 OA
ENDBRANCH 83 92
BRANCH 79 95
ATOM     95  O4  SGN B   6     -34.091  51.845  13.3360  0.00  0.00     0.000 O
BRANCH 95 99
ATOM     96  C1  SGN B   6     -36.712  54.006  15.7160  0.00  0.00     0.000 C
ATOM     97  C2  SGN B   6     -35.369  53.659  16.3490  0.00  0.00     0.000 C
ATOM     98  C3  SGN B   6     -34.401  53.392  15.1960  0.00  0.00     0.000 C
ATOM     99  C4  SGN B   6     -34.927  52.139  14.4400  0.00  0.00     0.000 C
ATOM    100  C5  SGN B   6     -36.346  52.501  13.9140  0.00  0.00     0.000 C
ATOM    101  O5  SGN B   6     -37.205  52.908  14.9740  0.00  0.00     0.000 O
BRANCH 97 104
ATOM    102   N  SGN B   6     -35.954  53.615  17.6920  0.00  0.00     0.000 N
ATOM    104  HD  SGN B   6     -36.294  54.387  17.8870  0.00  0.00     0.000 HD
ATOM    104 @NS  SGN B   6     -35.277  54.583  18.8570  0.00  0.00     0.000 S
ATOM    105   O  SGN B   6     -34.208  55.334  18.2370  0.00  0.00     0.000 OA
ATOM    106   O  SGN B   6     -36.331  55.440  19.3500  0.00  0.00     0.000 OA
ATOM    107   O  SGN B   6     -34.771  53.690  19.8750  0.00  0.00     0.000 OA
ENDBRANCH 97 104
BRANCH 100 108
ATOM    108   C  SGN B   6     -37.088  51.394  13.1730  0.00  0.00     0.000 C
ATOM    109   O  SGN B   6     -36.454  50.163  13.4160  0.00  0.00     0.000 O
ATOM    110  @S  SGN B   6     -36.896  48.771  12.8360  0.00  0.00     0.000 S
ATOM    111   O  SGN B   6     -37.286  49.017  11.4680  0.00  0.00     0.000 OA
ATOM    112   O  SGN B   6     -35.735  47.901  12.9270  0.00  0.00     0.000 OA
ATOM    113   O  SGN B   6     -38.000  48.335  13.6620  0.00  0.00     0.000 OA
ENDBRANCH 100 108
ENDBRANCH 95 99
ENDBRANCH 79 95
ENDBRANCH 78 82
ENDBRANCH 58 78
ENDBRANCH 57 61
ENDBRANCH 41 57
ENDBRANCH 40 44
ENDBRANCH 20 40
ENDBRANCH 19 23
ENDBRANCH 1 19
TORSDOF 22
ENDMDL
MODEL 81
REMARK VINA RESULT:       4.0      3.093     10.889
ROOT
ATOM      1  C1  IDS B   1     -18.024  48.916  12.0300  0.00  0.00     0.000 C
ATOM      2  C2  IDS B   1     -18.097  47.831  10.9880  0.00  0.00     0.000 C
ATOM      3  C3  IDS B   1     -17.952  48.288   9.5170  0.00  0.00     0.000 C
ATOM      4  C4  IDS B   1     -17.093  49.596   9.3430  0.00  0.00     0.000 C
ATOM      5  C5  IDS B   1     -17.155  50.520  10.5830  0.00  0.00     0.000 C
ATOM      6  O5  IDS B   1     -16.937  49.775  11.7510  0.00  0.00     0.000 O
ATOM      7   O  IDS B   1     -19.267  48.467   8.9990  0.00  0.00     0.000 O
ATOM      9  HD  IDS B   1     -18.709  48.950   8.5450  0.00  0.00     0.000 HD
ATOM      9   O  IDS B   1     -15.751  49.206   9.1580  0.00  0.00     0.000 O
ATOM     11  HD  IDS B   1     -15.193  49.689   8.7040  0.00  0.00     0.000 HD
ENDROOT
BRANCH 2 11
ATOM     11   O  IDS B   1     -17.092  46.903  11.2110  0.00  0.00     0.000 O
ATOM     12  @S  IDS B   1     -17.219  45.689  12.1520  0.00  0.00     0.000 S
ATOM     13   O  IDS B   1     -18.212  46.105  13.1210  0.00  0.00     0.000 OA
ATOM     14   O  IDS B   1     -17.668  44.575  11.3360  0.00  0.00     0.000 OA
ATOM     15   O  IDS B   1     -15.897  45.482  12.7100  0.00  0.00     0.000 OA
ENDBRANCH 2 11
BRANCH 5 16
ATOM     16 @CA  IDS B   1     -16.237  51.739  10.5720  0.00  0.00     0.000 C
ATOM     17   O  IDS B   1     -15.108  51.691  10.0910  0.00  0.00     0.000 OA
ATOM     18   O  IDS B   1     -16.618  52.811  11.0370  0.00  0.00     0.000 OA
ENDBRANCH 5 16
BRANCH 1 19
ATOM     19  O4  SGN B   2     -19.245  49.626  12.0070  0.00  0.00     0.000 O
BRANCH 19 23
ATOM     20  C1  SGN B   2     -21.615  51.221  14.9390  0.00  0.00     0.000 C
ATOM     21  C2  SGN B   2     -20.214  51.764  14.7610  0.00  0.00     0.000 C
ATOM     22  C3  SGN B   2     -19.760  51.512  13.3690  0.00  0.00     0.000 C
ATOM     23  C4  SGN B   2     -19.720  50.006  13.2480  0.00  0.00     0.000 C
ATOM     24  C5  SGN B   2     -21.140  49.568  13.3510  0.00  0.00     0.000 C
ATOM     25  O5  SGN B   2     -21.613  49.837  14.6200  0.00  0.00     0.000 O
ATOM     26   O  SGN B   2     -18.494  52.045  13.1930  0.00  0.00     0.000 O
ATOM     28  HD  SGN B   2     -17.647  52.194  13.0930  0.00  0.00     0.000 HD
BRANCH 21 30
ATOM     28   N  SGN B   2     -20.883  52.817  15.4700  0.00  0.00     0.000 N
ATOM     30  HD  SGN B   2     -20.673  53.477  14.9510  0.00  0.00     0.000 HD
ATOM     30 @NS  SGN B   2     -20.065  53.523  16.6830  0.00  0.00     0.000 S
ATOM     31   O  SGN B   2     -18.729  53.028  16.6980  0.00  0.00     0.000 OA
ATOM     32   O  SGN B   2     -20.105  54.889  16.3560  0.00  0.00     0.000 OA
ATOM     33   O  SGN B   2     -20.749  53.183  17.8730  0.00  0.00     0.000 OA
ENDBRANCH 21 30
BRANCH 24 34
ATOM     34   C  SGN B   2     -21.379  48.125  13.1010  0.00  0.00     0.000 C
ATOM     35   O  SGN B   2     -21.831  47.996  11.8000  0.00  0.00     0.000 O
ATOM     36  @S  SGN B   2     -21.987  46.654  11.0930  0.00  0.00     0.000 S
ATOM     37   O  SGN B   2     -23.355  46.264  11.3660  0.00  0.00     0.000 OA
ATOM     38   O  SGN B   2     -21.720  46.889   9.6930  0.00  0.00     0.000 OA
ATOM     39   O  SGN B   2     -20.992  45.784  11.7050  0.00  0.00     0.000 OA
ENDBRANCH 24 34
BRANCH 20 40
ATOM     40  O4  IDS B   3     -22.516  51.923  14.1390  0.00  0.00     0.000 O
BRANCH 40 44
ATOM     41  C1  IDS B   3     -25.514  53.659  13.5860  0.00  0.00     0.000 C
ATOM     42  C2  IDS B   3     -24.928  53.552  14.9920  0.00  0.00     0.000 C
ATOM     43  C3  IDS B   3     -24.468  52.144  15.4180  0.00  0.00     0.000 C
ATOM     44  C4  IDS B   3     -23.804  51.419  14.2640  0.00  0.00     0.000 C
ATOM     45  C5  IDS B   3     -24.573  51.604  12.9460  0.00  0.00     0.000 C
ATOM     46  O5  IDS B   3     -24.711  52.947  12.6560  0.00  0.00     0.000 O
ATOM     47   O  IDS B   3     -25.589  51.390  15.8290  0.00  0.00     0.000 O
ATOM     49  HD  IDS B   3     -24.753  51.614  15.8030  0.00  0.00     0.000 HD
BRANCH 42 49
ATOM     49   O  IDS B   3     -23.813  54.392  15.0740  0.00  0.00     0.000 O
ATOM     50   O  IDS B   3     -25.153  56.184  15.8090  0.00  0.00     0.000 OA
ATOM     51   O  IDS B   3     -23.008  55.883  16.7640  0.00  0.00     0.000 OA
ATOM     52   O  IDS B   3     -23.226  56.561  14.5140  0.00  0.00     0.000 OA
ATOM     53  @S  IDS B   3     -23.799  55.839  15.5750  0.00  0.00     0.000 S
ENDBRANCH 42 49
BRANCH 45 54
ATOM     54 @CA  IDS B   3     -23.987  50.874  11.7400  0.00  0.00     0.000 C
ATOM     55   O  IDS B   3     -24.425  49.820  11.3660  0.00  0.00     0.000 OA
ATOM     56   O  IDS B   3     -23.091  51.337  11.1150  0.00  0.00     0.000 OA
ENDBRANCH 45 54
BRANCH 41 57
ATOM     57  O4  SGN B   4     -26.825  53.197  13.5910  0.00  0.00     0.000 O
BRANCH 57 61
ATOM     58  C1  SGN B   4     -27.937  55.793  10.5870  0.00  0.00     0.000 C
ATOM     59  C2  SGN B   4     -28.252  56.252  12.0010  0.00  0.00     0.000 C
ATOM     60  C3  SGN B   4     -27.459  55.419  13.0040  0.00  0.00     0.000 C
ATOM     61  C4  SGN B   4     -27.726  53.921  12.8110  0.00  0.00     0.000 C
ATOM     62  C5  SGN B   4     -27.468  53.586  11.3450  0.00  0.00     0.000 C
ATOM     63  O5  SGN B   4     -28.234  54.410  10.4860  0.00  0.00     0.000 O
ATOM     64   O  SGN B   4     -27.857  55.781  14.3100  0.00  0.00     0.000 O
ATOM     66  HD  SGN B   4     -28.195  55.150  14.7980  0.00  0.00     0.000 HD
BRANCH 59 68
ATOM     66   N  SGN B   4     -29.259  57.201  11.5740  0.00  0.00     0.000 N
ATOM     68  HD  SGN B   4     -28.769  56.585  11.2130  0.00  0.00     0.000 HD
ATOM     68 @NS  SGN B   4     -28.880  58.791  11.4310  0.00  0.00     0.000 S
ATOM     69   O  SGN B   4     -27.987  59.138  12.4970  0.00  0.00     0.000 OA
ATOM     70   O  SGN B   4     -28.247  58.936  10.1520  0.00  0.00     0.000 OA
ATOM     71   O  SGN B   4     -30.140  59.465  11.5220  0.00  0.00     0.000 OA
ENDBRANCH 59 68
BRANCH 62 72
ATOM     72   C  SGN B   4     -27.821  52.147  10.9970  0.00  0.00     0.000 C
ATOM     73   O  SGN B   4     -28.051  52.140   9.6190  0.00  0.00     0.000 O
ATOM     74  @S  SGN B   4     -27.794  50.987   8.6330  0.00  0.00     0.000 S
ATOM     75   O  SGN B   4     -28.552  49.876   9.0760  0.00  0.00     0.000 OA
ATOM     76   O  SGN B   4     -28.255  51.493   7.3750  0.00  0.00     0.000 OA
ATOM     77   O  SGN B   4     -26.396  50.723   8.7000  0.00  0.00     0.000 OA
ENDBRANCH 62 72
BRANCH 58 78
ATOM     78  O4  IDS B   5     -26.589  56.076  10.2720  0.00  0.00     0.000 O
BRANCH 78 82
ATOM     79  C1  IDS B   5     -23.588  57.328   9.0780  0.00  0.00     0.000 C
ATOM     80  C2  IDS B   5     -24.695  58.279   9.4180  0.00  0.00     0.000 C
ATOM     81  C3  IDS B   5     -26.039  57.906   8.7980  0.00  0.00     0.000 C
ATOM     82  C4  IDS B   5     -26.353  56.430   8.9260  0.00  0.00     0.000 C
ATOM     83  C5  IDS B   5     -25.163  55.672   8.4310  0.00  0.00     0.000 C
ATOM     84  O5  IDS B   5     -24.034  55.992   9.2220  0.00  0.00     0.000 O
ATOM     85   O  IDS B   5     -25.979  58.212   7.4260  0.00  0.00     0.000 O
ATOM     87  HD  IDS B   5     -26.193  57.462   7.8020  0.00  0.00     0.000 HD
BRANCH 80 87
ATOM     87   O  IDS B   5     -24.866  58.270  10.7800  0.00  0.00     0.000 O
ATOM     88  @S  IDS B   5     -24.558  59.410  11.7550  0.00  0.00     0.000 S
ATOM     89   O  IDS B   5     -25.249  60.534  11.2360  0.00  0.00     0.000 OA
ATOM     90   O  IDS B   5     -25.032  58.964  13.0180  0.00  0.00     0.000 OA
ATOM     91   O  IDS B   5     -23.146  59.568  11.7400  0.00  0.00     0.000 OA
ENDBRANCH 80 87
BRANCH 83 92
ATOM     92 @CA  IDS B   5     -25.395  54.169   8.3200  0.00  0.00     0.000 C
ATOM     93   O  IDS B   5     -26.020  53.692   7.3700  0.00  0.00     0.000 OA
ATOM     94   O  IDS B   5     -24.963  53.400   9.1870  0.00  0.00     0.000 OA
ENDBRANCH 83 92
BRANCH 79 95
ATOM     95  O4  SGN B   6     -23.126  57.593   7.7960  0.00  0.00     0.000 O
BRANCH 95 99
ATOM     96  C1  SGN B   6     -19.829  59.702   9.1720  0.00  0.00     0.000 C
ATOM     97  C2  SGN B   6     -20.672  60.401   8.1110  0.00  0.00     0.000 C
ATOM     98  C3  SGN B   6     -22.058  59.755   8.1600  0.00  0.00     0.000 C
ATOM     99  C4  SGN B   6     -21.881  58.266   7.7470  0.00  0.00     0.000 C
ATOM    100  C5  SGN B   6     -20.922  57.626   8.7910  0.00  0.00     0.000 C
ATOM    101  O5  SGN B   6     -19.686  58.330   8.8610  0.00  0.00     0.000 O
BRANCH 97 104
ATOM    102   N  SGN B   6     -19.761  61.472   8.5250  0.00  0.00     0.000 N
ATOM    104  HD  SGN B   6     -20.209  62.201   8.6580  0.00  0.00     0.000 HD
ATOM    104 @NS  SGN B   6     -19.600  62.778   7.5140  0.00  0.00     0.000 S
ATOM    105   O  SGN B   6     -20.481  62.571   6.3860  0.00  0.00     0.000 OA
ATOM    106   O  SGN B   6     -19.961  63.946   8.2830  0.00  0.00     0.000 OA
ATOM    107   O  SGN B   6     -18.214  62.795   7.1020  0.00  0.00     0.000 OA
ENDBRANCH 97 104
BRANCH 100 108
ATOM    108   C  SGN B   6     -20.559  56.164   8.5590  0.00  0.00     0.000 C
ATOM    109   O  SGN B   6     -20.846  55.423   9.7190  0.00  0.00     0.000 O
ATOM    110  @S  SGN B   6     -20.614  53.879   9.9050  0.00  0.00     0.000 S
ATOM    111   O  SGN B   6     -19.351  53.589   9.2710  0.00  0.00     0.000 OA
ATOM    112   O  SGN B   6     -20.576  53.639  11.3380  0.00  0.00     0.000 OA
ATOM    113   O  SGN B   6     -21.730  53.235   9.2500  0.00  0.00     0.000 OA
ENDBRANCH 100 108
ENDBRANCH 95 99
ENDBRANCH 79 95
ENDBRANCH 78 82
ENDBRANCH 58 78
ENDBRANCH 57 61
ENDBRANCH 41 57
ENDBRANCH 40 44
ENDBRANCH 20 40
ENDBRANCH 19 23
ENDBRANCH 1 19
TORSDOF 22
ENDMDL
MODEL 82
REMARK VINA RESULT:       4.2      3.084      8.861
ROOT
ATOM      1  C1  IDS B   1     -24.062  51.057  14.1350  0.00  0.00     0.000 C
ATOM      2  C2  IDS B   1     -24.100  52.538  14.4020  0.00  0.00     0.000 C
ATOM      3  C3  IDS B   1     -23.510  53.445  13.2960  0.00  0.00     0.000 C
ATOM      4  C4  IDS B   1     -23.606  52.826  11.8520  0.00  0.00     0.000 C
ATOM      5  C5  IDS B   1     -23.594  51.278  11.8640  0.00  0.00     0.000 C
ATOM      6  O5  IDS B   1     -24.503  50.797  12.8180  0.00  0.00     0.000 O
ATOM      7   O  IDS B   1     -22.157  53.715  13.6480  0.00  0.00     0.000 O
ATOM      9  HD  IDS B   1     -22.257  53.804  12.7920  0.00  0.00     0.000 HD
ATOM      9   O  IDS B   1     -24.827  53.246  11.2850  0.00  0.00     0.000 O
ATOM     11  HD  IDS B   1     -24.927  53.336  10.4300  0.00  0.00     0.000 HD
ENDROOT
BRANCH 2 11
ATOM     11   O  IDS B   1     -25.412  52.945  14.5840  0.00  0.00     0.000 O
ATOM     12  @S  IDS B   1     -25.866  53.984  15.6280  0.00  0.00     0.000 S
ATOM     13   O  IDS B   1     -24.860  53.894  16.6670  0.00  0.00     0.000 OA
ATOM     14   O  IDS B   1     -25.864  55.273  14.9610  0.00  0.00     0.000 OA
ATOM     15   O  IDS B   1     -27.190  53.570  16.0490  0.00  0.00     0.000 OA
ENDBRANCH 2 11
BRANCH 5 16
ATOM     16 @CA  IDS B   1     -23.834  50.583  10.5270  0.00  0.00     0.000 C
ATOM     17   O  IDS B   1     -24.328  51.177   9.5720  0.00  0.00     0.000 OA
ATOM     18   O  IDS B   1     -23.522  49.405  10.3720  0.00  0.00     0.000 OA
ENDBRANCH 5 16
BRANCH 1 19
ATOM     19  O4  SGN B   2     -22.733  50.614  14.3170  0.00  0.00     0.000 O
BRANCH 19 23
ATOM     20  C1  SGN B   2     -20.985  47.993  16.9310  0.00  0.00     0.000 C
ATOM     21  C2  SGN B   2     -21.988  47.462  15.9310  0.00  0.00     0.000 C
ATOM     22  C3  SGN B   2     -22.050  48.375  14.7600  0.00  0.00     0.000 C
ATOM     23  C4  SGN B   2     -22.563  49.681  15.3220  0.00  0.00     0.000 C
ATOM     24  C5  SGN B   2     -21.484  50.169  16.2250  0.00  0.00     0.000 C
ATOM     25  O5  SGN B   2     -21.363  49.312  17.3010  0.00  0.00     0.000 O
ATOM     26   O  SGN B   2     -22.937  47.868  13.8260  0.00  0.00     0.000 O
ATOM     28  HD  SGN B   2     -23.607  47.691  13.3070  0.00  0.00     0.000 HD
BRANCH 21 30
ATOM     28   N  SGN B   2     -22.347  46.502  16.9340  0.00  0.00     0.000 N
ATOM     30  HD  SGN B   2     -21.609  46.504  17.3860  0.00  0.00     0.000 HD
ATOM     30 @NS  SGN B   2     -22.111  44.936  16.5730  0.00  0.00     0.000 S
ATOM     31   O  SGN B   2     -21.423  44.840  15.3290  0.00  0.00     0.000 OA
ATOM     32   O  SGN B   2     -21.321  44.467  17.6360  0.00  0.00     0.000 OA
ATOM     33   O  SGN B   2     -23.396  44.350  16.4920  0.00  0.00     0.000 OA
ENDBRANCH 21 30
BRANCH 24 34
ATOM     34   C  SGN B   2     -21.688  51.530  16.7810  0.00  0.00     0.000 C
ATOM     35   O  SGN B   2     -20.479  52.199  16.7010  0.00  0.00     0.000 O
ATOM     36  @S  SGN B   2     -20.325  53.691  16.9740  0.00  0.00     0.000 S
ATOM     37   O  SGN B   2     -20.012  53.764  18.3870  0.00  0.00     0.000 OA
ATOM     38   O  SGN B   2     -19.260  54.161  16.1190  0.00  0.00     0.000 OA
ATOM     39   O  SGN B   2     -21.611  54.277  16.6230  0.00  0.00     0.000 OA
ENDBRANCH 24 34
BRANCH 20 40
ATOM     40  O4  IDS B   3     -19.698  47.967  16.3930  0.00  0.00     0.000 O
BRANCH 40 44
ATOM     41  C1  IDS B   3     -16.221  47.703  16.0170  0.00  0.00     0.000 C
ATOM     42  C2  IDS B   3     -17.148  46.647  15.4180  0.00  0.00     0.000 C
ATOM     43  C3  IDS B   3     -18.253  46.123  16.3550  0.00  0.00     0.000 C
ATOM     44  C4  IDS B   3     -18.828  47.244  17.1970  0.00  0.00     0.000 C
ATOM     45  C5  IDS B   3     -17.733  48.168  17.7530  0.00  0.00     0.000 C
ATOM     46  O5  IDS B   3     -16.970  48.682  16.7230  0.00  0.00     0.000 O
ATOM     47   O  IDS B   3     -17.708  45.151  17.2230  0.00  0.00     0.000 O
ATOM     49  HD  IDS B   3     -18.332  45.547  16.7720  0.00  0.00     0.000 HD
BRANCH 42 49
ATOM     49   O  IDS B   3     -17.783  47.196  14.2990  0.00  0.00     0.000 O
ATOM     50   O  IDS B   3     -15.987  46.568  12.9100  0.00  0.00     0.000 OA
ATOM     51   O  IDS B   3     -18.199  46.376  12.0890  0.00  0.00     0.000 OA
ATOM     52   O  IDS B   3     -17.248  48.503  12.4650  0.00  0.00     0.000 OA
ATOM     53  @S  IDS B   3     -17.275  47.154  12.8550  0.00  0.00     0.000 S
ENDBRANCH 42 49
BRANCH 45 54
ATOM     54 @CA  IDS B   3     -18.228  49.307  18.6430  0.00  0.00     0.000 C
ATOM     55   O  IDS B   3     -18.521  49.126  19.7940  0.00  0.00     0.000 OA
ATOM     56   O  IDS B   3     -18.318  50.416  18.2320  0.00  0.00     0.000 OA
ENDBRANCH 45 54
BRANCH 41 57
ATOM     57  O4  SGN B   4     -15.280  47.088  16.8340  0.00  0.00     0.000 O
BRANCH 57 61
ATOM     58  C1  SGN B   4     -12.361  49.753  15.6610  0.00  0.00     0.000 C
ATOM     59  C2  SGN B   4     -12.243  48.353  15.0820  0.00  0.00     0.000 C
ATOM     60  C3  SGN B   4     -13.559  47.603  15.2670  0.00  0.00     0.000 C
ATOM     61  C4  SGN B   4     -13.980  47.584  16.7410  0.00  0.00     0.000 C
ATOM     62  C5  SGN B   4     -13.979  49.025  17.2470  0.00  0.00     0.000 C
ATOM     63  O5  SGN B   4     -12.726  49.646  17.0260  0.00  0.00     0.000 O
ATOM     64   O  SGN B   4     -13.388  46.270  14.8320  0.00  0.00     0.000 O
ATOM     66  HD  SGN B   4     -13.520  45.652  15.4240  0.00  0.00     0.000 HD
BRANCH 59 68
ATOM     66   N  SGN B   4     -10.889  48.148  14.6080  0.00  0.00     0.000 N
ATOM     68  HD  SGN B   4     -11.285  48.594  15.2370  0.00  0.00     0.000 HD
ATOM     68 @NS  SGN B   4     -10.383  48.877  13.2290  0.00  0.00     0.000 S
ATOM     69   O  SGN B   4     -11.468  48.872  12.2930  0.00  0.00     0.000 OA
ATOM     70   O  SGN B   4     -10.018  50.215  13.5960  0.00  0.00     0.000 OA
ATOM     71   O  SGN B   4      -9.273  48.084  12.7950  0.00  0.00     0.000 OA
ENDBRANCH 59 68
BRANCH 62 72
ATOM     72   C  SGN B   4     -14.260  49.127  18.7380  0.00  0.00     0.000 C
ATOM     73   O  SGN B   4     -13.011  49.065  19.3600  0.00  0.00     0.000 O
ATOM     74  @S  SGN B   4     -12.585  49.741  20.6750  0.00  0.00     0.000 S
ATOM     75   O  SGN B   4     -13.456  49.277  21.6900  0.00  0.00     0.000 OA
ATOM     76   O  SGN B   4     -11.237  49.302  20.8740  0.00  0.00     0.000 OA
ATOM     77   O  SGN B   4     -12.737  51.140  20.4590  0.00  0.00     0.000 OA
ENDBRANCH 62 72
BRANCH 58 78
ATOM     78  O4  IDS B   5     -13.291  50.512  14.9140  0.00  0.00     0.000 O
BRANCH 78 82
ATOM     79  C1  IDS B   5     -15.172  52.794  13.1120  0.00  0.00     0.000 C
ATOM     80  C2  IDS B   5     -13.922  52.233  12.5050  0.00  0.00     0.000 C
ATOM     81  C3  IDS B   5     -12.703  52.313  13.4200  0.00  0.00     0.000 C
ATOM     82  C4  IDS B   5     -13.011  51.893  14.8430  0.00  0.00     0.000 C
ATOM     83  C5  IDS B   5     -14.221  52.653  15.2850  0.00  0.00     0.000 C
ATOM     84  O5  IDS B   5     -15.313  52.333  14.4440  0.00  0.00     0.000 O
ATOM     85   O  IDS B   5     -12.278  53.654  13.4540  0.00  0.00     0.000 O
ATOM     87  HD  IDS B   5     -12.469  53.132  14.1180  0.00  0.00     0.000 HD
BRANCH 80 87
ATOM     87   O  IDS B   5     -14.134  50.904  12.2360  0.00  0.00     0.000 O
ATOM     88  @S  IDS B   5     -14.317  50.260  10.8590  0.00  0.00     0.000 S
ATOM     89   O  IDS B   5     -13.194  50.684  10.1030  0.00  0.00     0.000 OA
ATOM     90   O  IDS B   5     -14.364  48.861  11.1000  0.00  0.00     0.000 OA
ATOM     91   O  IDS B   5     -15.549  50.757  10.3540  0.00  0.00     0.000 OA
ENDBRANCH 80 87
BRANCH 83 92
ATOM     92 @CA  IDS B   5     -14.548  52.479  16.7630  0.00  0.00     0.000 C
ATOM     93   O  IDS B   5     -13.706  52.720  17.6320  0.00  0.00     0.000 OA
ATOM     94   O  IDS B   5     -15.666  52.087  17.1190  0.00  0.00     0.000 OA
ENDBRANCH 83 92
BRANCH 79 95
ATOM     95  O4  SGN B   6     -15.143  54.180  13.0360  0.00  0.00     0.000 O
BRANCH 95 99
ATOM     96  C1  SGN B   6     -17.929  57.201  13.6080  0.00  0.00     0.000 C
ATOM     97  C2  SGN B   6     -17.226  56.696  14.8630  0.00  0.00     0.000 C
ATOM     98  C3  SGN B   6     -15.921  56.046  14.4000  0.00  0.00     0.000 C
ATOM     99  C4  SGN B   6     -16.308  54.820  13.5250  0.00  0.00     0.000 C
ATOM    100  C5  SGN B   6     -17.122  55.373  12.3210  0.00  0.00     0.000 C
ATOM    101  O5  SGN B   6     -18.254  56.119  12.7570  0.00  0.00     0.000 O
BRANCH 97 104
ATOM    102   N  SGN B   6     -18.407  57.178  15.5850  0.00  0.00     0.000 N
ATOM    104  HD  SGN B   6     -18.397  58.044  15.6140  0.00  0.00     0.000 HD
ATOM    104 @NS  SGN B   6     -18.158  57.987  17.0120  0.00  0.00     0.000 S
ATOM    105   O  SGN B   6     -16.730  58.072  17.2250  0.00  0.00     0.000 OA
ATOM    106   O  SGN B   6     -18.767  59.289  16.8640  0.00  0.00     0.000 OA
ATOM    107   O  SGN B   6     -18.796  57.193  18.0380  0.00  0.00     0.000 OA
ENDBRANCH 97 104
BRANCH 100 108
ATOM    108   C  SGN B   6     -17.657  54.335  11.3410  0.00  0.00     0.000 C
ATOM    109   O  SGN B   6     -18.741  53.657  11.9240  0.00  0.00     0.000 O
ATOM    110  @S  SGN B   6     -19.574  52.505  11.2530  0.00  0.00     0.000 S
ATOM    111   O  SGN B   6     -18.618  51.678  10.5570  0.00  0.00     0.000 OA
ATOM    112   O  SGN B   6     -20.232  51.790  12.3350  0.00  0.00     0.000 OA
ATOM    113   O  SGN B   6     -20.501  53.162  10.3590  0.00  0.00     0.000 OA
ENDBRANCH 100 108
ENDBRANCH 95 99
ENDBRANCH 79 95
ENDBRANCH 78 82
ENDBRANCH 58 78
ENDBRANCH 57 61
ENDBRANCH 41 57
ENDBRANCH 40 44
ENDBRANCH 20 40
ENDBRANCH 19 23
ENDBRANCH 1 19
TORSDOF 22
ENDMDL
MODEL 83
REMARK VINA RESULT:       4.2      3.456      9.139
ROOT
ATOM      1  C1  IDS B   1     -25.906  57.651  11.3190  0.00  0.00     0.000 C
ATOM      2  C2  IDS B   1     -26.479  59.044  11.3060  0.00  0.00     0.000 C
ATOM      3  C3  IDS B   1     -28.007  59.153  11.5270  0.00  0.00     0.000 C
ATOM      4  C4  IDS B   1     -28.607  57.980  12.3890  0.00  0.00     0.000 C
ATOM      5  C5  IDS B   1     -27.796  56.668  12.2590  0.00  0.00     0.000 C
ATOM      6  O5  IDS B   1     -26.428  56.929  12.4170  0.00  0.00     0.000 O
ATOM      7   O  IDS B   1     -28.617  59.206  10.2410  0.00  0.00     0.000 O
ATOM      9  HD  IDS B   1     -29.189  58.910  10.8200  0.00  0.00     0.000 HD
ATOM      9   O  IDS B   1     -28.571  58.381  13.7410  0.00  0.00     0.000 O
ATOM     11  HD  IDS B   1     -29.143  58.085  14.3200  0.00  0.00     0.000 HD
ENDROOT
BRANCH 2 11
ATOM     11   O  IDS B   1     -25.884  59.803  12.3010  0.00  0.00     0.000 O
ATOM     12  @S  IDS B   1     -25.571  61.307  12.1800  0.00  0.00     0.000 S
ATOM     13   O  IDS B   1     -25.417  61.516  10.7550  0.00  0.00     0.000 OA
ATOM     14   O  IDS B   1     -26.715  62.015  12.7270  0.00  0.00     0.000 OA
ATOM     15   O  IDS B   1     -24.358  61.521  12.9450  0.00  0.00     0.000 OA
ENDBRANCH 2 11
BRANCH 5 16
ATOM     16 @CA  IDS B   1     -28.210  55.517  13.1710  0.00  0.00     0.000 C
ATOM     17   O  IDS B   1     -27.378  54.802  13.7240  0.00  0.00     0.000 OA
ATOM     18   O  IDS B   1     -29.398  55.288  13.3860  0.00  0.00     0.000 OA
ENDBRANCH 5 16
BRANCH 1 19
ATOM     19  O4  SGN B   2     -26.246  57.026  10.0990  0.00  0.00     0.000 O
BRANCH 19 23
ATOM     20  C1  SGN B   2     -23.033  54.545   9.5690  0.00  0.00     0.000 C
ATOM     21  C2  SGN B   2     -22.885  56.010   9.2210  0.00  0.00     0.000 C
ATOM     22  C3  SGN B   2     -23.876  56.804   9.9940  0.00  0.00     0.000 C
ATOM     23  C4  SGN B   2     -25.220  56.318   9.5030  0.00  0.00     0.000 C
ATOM     24  C5  SGN B   2     -25.314  54.903   9.9580  0.00  0.00     0.000 C
ATOM     25  O5  SGN B   2     -24.369  54.144   9.2970  0.00  0.00     0.000 O
ATOM     26   O  SGN B   2     -23.714  58.148   9.7070  0.00  0.00     0.000 O
ATOM     28  HD  SGN B   2     -23.773  58.965   9.4240  0.00  0.00     0.000 HD
BRANCH 21 30
ATOM     28   N  SGN B   2     -21.526  56.385   9.4820  0.00  0.00     0.000 N
ATOM     30  HD  SGN B   2     -21.571  57.215   9.2380  0.00  0.00     0.000 HD
ATOM     30 @NS  SGN B   2     -20.445  56.107   8.3010  0.00  0.00     0.000 S
ATOM     31   O  SGN B   2     -21.130  55.662   7.1340  0.00  0.00     0.000 OA
ATOM     32   O  SGN B   2     -19.846  57.362   8.1000  0.00  0.00     0.000 OA
ATOM     33   O  SGN B   2     -19.571  55.109   8.7920  0.00  0.00     0.000 OA
ENDBRANCH 21 30
BRANCH 24 34
ATOM     34   C  SGN B   2     -26.626  54.247   9.7300  0.00  0.00     0.000 C
ATOM     35   O  SGN B   2     -26.717  53.180  10.6050  0.00  0.00     0.000 O
ATOM     36  @S  SGN B   2     -27.998  52.385  10.8310  0.00  0.00     0.000 S
ATOM     37   O  SGN B   2     -27.917  51.299   9.8740  0.00  0.00     0.000 OA
ATOM     38   O  SGN B   2     -27.978  51.946  12.2070  0.00  0.00     0.000 OA
ATOM     39   O  SGN B   2     -29.081  53.323  10.5670  0.00  0.00     0.000 OA
ENDBRANCH 24 34
BRANCH 20 40
ATOM     40  O4  IDS B   3     -22.700  54.324  10.9050  0.00  0.00     0.000 O
BRANCH 40 44
ATOM     41  C1  IDS B   3     -21.657  52.299  13.5720  0.00  0.00     0.000 C
ATOM     42  C2  IDS B   3     -21.280  53.779  13.5280  0.00  0.00     0.000 C
ATOM     43  C3  IDS B   3     -20.734  54.287  12.1800  0.00  0.00     0.000 C
ATOM     44  C4  IDS B   3     -21.485  53.663  11.0210  0.00  0.00     0.000 C
ATOM     45  C5  IDS B   3     -21.721  52.159  11.2280  0.00  0.00     0.000 C
ATOM     46  O5  IDS B   3     -22.394  51.938  12.4140  0.00  0.00     0.000 O
ATOM     47   O  IDS B   3     -19.371  53.938  12.0650  0.00  0.00     0.000 O
ATOM     49  HD  IDS B   3     -20.083  54.405  11.9100  0.00  0.00     0.000 HD
BRANCH 42 49
ATOM     49   O  IDS B   3     -22.418  54.537  13.8240  0.00  0.00     0.000 O
ATOM     50   O  IDS B   3     -21.096  56.247  14.7600  0.00  0.00     0.000 OA
ATOM     51   O  IDS B   3     -22.992  56.832  13.4690  0.00  0.00     0.000 OA
ATOM     52   O  IDS B   3     -23.258  55.799  15.5740  0.00  0.00     0.000 OA
ATOM     53  @S  IDS B   3     -22.441  55.939  14.4390  0.00  0.00     0.000 S
ENDBRANCH 42 49
BRANCH 45 54
ATOM     54 @CA  IDS B   3     -22.442  51.446  10.0870  0.00  0.00     0.000 C
ATOM     55   O  IDS B   3     -23.610  51.172  10.1520  0.00  0.00     0.000 OA
ATOM     56   O  IDS B   3     -21.877  51.158   9.0840  0.00  0.00     0.000 OA
ENDBRANCH 45 54
BRANCH 41 57
ATOM     57  O4  SGN B   4     -20.508  51.530  13.7110  0.00  0.00     0.000 O
BRANCH 57 61
ATOM     58  C1  SGN B   4     -19.539  47.738  15.0070  0.00  0.00     0.000 C
ATOM     59  C2  SGN B   4     -19.657  47.907  13.5010  0.00  0.00     0.000 C
ATOM     60  C3  SGN B   4     -19.626  49.390  13.1430  0.00  0.00     0.000 C
ATOM     61  C4  SGN B   4     -20.713  50.163  13.8970  0.00  0.00     0.000 C
ATOM     62  C5  SGN B   4     -20.562  49.854  15.3840  0.00  0.00     0.000 C
ATOM     63  O5  SGN B   4     -20.592  48.459  15.6250  0.00  0.00     0.000 O
ATOM     64   O  SGN B   4     -19.857  49.527  11.7560  0.00  0.00     0.000 O
ATOM     66  HD  SGN B   4     -20.552  49.990  11.5260  0.00  0.00     0.000 HD
BRANCH 59 68
ATOM     66   N  SGN B   4     -19.827  46.630  12.8390  0.00  0.00     0.000 N
ATOM     68  HD  SGN B   4     -20.072  47.001  13.5820  0.00  0.00     0.000 HD
ATOM     68 @NS  SGN B   4     -18.583  45.563  12.7830  0.00  0.00     0.000 S
ATOM     69   O  SGN B   4     -17.366  46.299  12.6010  0.00  0.00     0.000 OA
ATOM     70   O  SGN B   4     -18.591  44.874  14.0420  0.00  0.00     0.000 OA
ATOM     71   O  SGN B   4     -18.890  44.717  11.6700  0.00  0.00     0.000 OA
ENDBRANCH 59 68
BRANCH 62 72
ATOM     72   C  SGN B   4     -21.667  50.466  16.2310  0.00  0.00     0.000 C
ATOM     73   O  SGN B   4     -22.861  49.968  15.7060  0.00  0.00     0.000 O
ATOM     74  @S  SGN B   4     -24.169  49.680  16.4630  0.00  0.00     0.000 S
ATOM     75   O  SGN B   4     -24.583  50.891  17.0680  0.00  0.00     0.000 OA
ATOM     76   O  SGN B   4     -25.076  49.245  15.4440  0.00  0.00     0.000 OA
ATOM     77   O  SGN B   4     -23.844  48.696  17.4400  0.00  0.00     0.000 OA
ENDBRANCH 62 72
BRANCH 58 78
ATOM     78  O4  IDS B   5     -18.266  48.165  15.4460  0.00  0.00     0.000 O
BRANCH 78 82
ATOM     79  C1  IDS B   5     -15.120  48.691  16.7980  0.00  0.00     0.000 C
ATOM     80  C2  IDS B   5     -15.313  47.595  15.7950  0.00  0.00     0.000 C
ATOM     81  C3  IDS B   5     -16.488  46.673  16.1080  0.00  0.00     0.000 C
ATOM     82  C4  IDS B   5     -17.731  47.431  16.5270  0.00  0.00     0.000 C
ATOM     83  C5  IDS B   5     -17.333  48.386  17.6070  0.00  0.00     0.000 C
ATOM     84  O5  IDS B   5     -16.366  49.290  17.1070  0.00  0.00     0.000 O
ATOM     85   O  IDS B   5     -16.111  45.845  17.1810  0.00  0.00     0.000 O
ATOM     87  HD  IDS B   5     -16.811  46.350  17.1100  0.00  0.00     0.000 HD
BRANCH 80 87
ATOM     87   O  IDS B   5     -15.568  48.169  14.5740  0.00  0.00     0.000 O
ATOM     88  @S  IDS B   5     -14.559  48.440  13.4550  0.00  0.00     0.000 S
ATOM     89   O  IDS B   5     -13.921  47.194  13.2250  0.00  0.00     0.000 OA
ATOM     90   O  IDS B   5     -15.330  48.912  12.3590  0.00  0.00     0.000 OA
ATOM     91   O  IDS B   5     -13.676  49.435  13.9540  0.00  0.00     0.000 OA
ENDBRANCH 80 87
BRANCH 83 92
ATOM     92 @CA  IDS B   5     -18.512  49.092  18.2660  0.00  0.00     0.000 C
ATOM     93   O  IDS B   5     -19.437  48.450  18.7680  0.00  0.00     0.000 OA
ATOM     94   O  IDS B   5     -18.564  50.327  18.3040  0.00  0.00     0.000 OA
ENDBRANCH 83 92
BRANCH 79 95
ATOM     95  O4  SGN B   6     -14.487  48.183  17.9250  0.00  0.00     0.000 O
BRANCH 95 99
ATOM     96  C1  SGN B   6     -12.063  49.899  20.8220  0.00  0.00     0.000 C
ATOM     97  C2  SGN B   6     -13.012  50.848  20.0990  0.00  0.00     0.000 C
ATOM     98  C3  SGN B   6     -14.140  49.987  19.5290  0.00  0.00     0.000 C
ATOM     99  C4  SGN B   6     -13.501  49.035  18.4780  0.00  0.00     0.000 C
ATOM    100  C5  SGN B   6     -12.457  48.168  19.2400  0.00  0.00     0.000 C
ATOM    101  O5  SGN B   6     -11.496  48.980  19.9080  0.00  0.00     0.000 O
BRANCH 97 104
ATOM    102   N  SGN B   6     -13.537  51.930  20.9370  0.00  0.00     0.000 N
ATOM    104  HD  SGN B   6     -13.745  52.608  20.4400  0.00  0.00     0.000 HD
ATOM    104 @NS  SGN B   6     -12.668  53.342  21.0020  0.00  0.00     0.000 S
ATOM    105   O  SGN B   6     -11.523  53.194  20.1300  0.00  0.00     0.000 OA
ATOM    106   O  SGN B   6     -13.554  54.396  20.5650  0.00  0.00     0.000 OA
ATOM    107   O  SGN B   6     -12.262  53.498  22.3810  0.00  0.00     0.000 OA
ENDBRANCH 97 104
BRANCH 100 108
ATOM    108   C  SGN B   6     -11.660  47.183  18.3950  0.00  0.00     0.000 C
ATOM    109   O  SGN B   6     -11.340  47.778  17.1610  0.00  0.00     0.000 O
ATOM    110  @S  SGN B   6     -10.531  47.101  15.9960  0.00  0.00     0.000 S
ATOM    111   O  SGN B   6     -10.995  45.735  15.9320  0.00  0.00     0.000 OA
ATOM    112   O  SGN B   6     -10.851  47.845  14.7880  0.00  0.00     0.000 OA
ATOM    113   O  SGN B   6      -9.140  47.202  16.3750  0.00  0.00     0.000 OA
ENDBRANCH 100 108
ENDBRANCH 95 99
ENDBRANCH 79 95
ENDBRANCH 78 82
ENDBRANCH 58 78
ENDBRANCH 57 61
ENDBRANCH 41 57
ENDBRANCH 40 44
ENDBRANCH 20 40
ENDBRANCH 19 23
ENDBRANCH 1 19
TORSDOF 22
ENDMDL
MODEL 84
REMARK VINA RESULT:       4.4      2.647      8.985
ROOT
ATOM      1  C1  IDS B   1     -26.158  55.172  11.2790  0.00  0.00     0.000 C
ATOM      2  C2  IDS B   1     -26.677  55.978  10.1170  0.00  0.00     0.000 C
ATOM      3  C3  IDS B   1     -27.056  57.447  10.4230  0.00  0.00     0.000 C
ATOM      4  C4  IDS B   1     -26.242  58.076  11.6150  0.00  0.00     0.000 C
ATOM      5  C5  IDS B   1     -25.785  57.018  12.6490  0.00  0.00     0.000 C
ATOM      6  O5  IDS B   1     -25.199  55.925  11.9930  0.00  0.00     0.000 O
ATOM      7   O  IDS B   1     -28.455  57.476  10.6880  0.00  0.00     0.000 O
ATOM      9  HD  IDS B   1     -28.075  58.154  11.0680  0.00  0.00     0.000 HD
ATOM      9   O  IDS B   1     -25.090  58.682  11.0740  0.00  0.00     0.000 O
ATOM     11  HD  IDS B   1     -24.709  59.361  11.4550  0.00  0.00     0.000 HD
ENDROOT
BRANCH 2 11
ATOM     11   O  IDS B   1     -25.721  56.021   9.1150  0.00  0.00     0.000 O
ATOM     12  @S  IDS B   1     -26.025  55.864   7.6130  0.00  0.00     0.000 S
ATOM     13   O  IDS B   1     -27.240  55.074   7.5860  0.00  0.00     0.000 OA
ATOM     14   O  IDS B   1     -26.219  57.203   7.0850  0.00  0.00     0.000 OA
ATOM     15   O  IDS B   1     -24.872  55.196   7.0430  0.00  0.00     0.000 OA
ENDBRANCH 2 11
BRANCH 5 16
ATOM     16 @CA  IDS B   1     -24.862  57.506  13.7610  0.00  0.00     0.000 C
ATOM     17   O  IDS B   1     -24.124  56.736  14.3710  0.00  0.00     0.000 OA
ATOM     18   O  IDS B   1     -24.827  58.696  14.0650  0.00  0.00     0.000 OA
ENDBRANCH 5 16
BRANCH 1 19
ATOM     19  O4  SGN B   2     -27.255  54.840  12.1050  0.00  0.00     0.000 O
BRANCH 19 23
ATOM     20  C1  SGN B   2     -26.650  50.792  12.1690  0.00  0.00     0.000 C
ATOM     21  C2  SGN B   2     -27.739  51.350  11.2790  0.00  0.00     0.000 C
ATOM     22  C3  SGN B   2     -27.429  52.765  10.9470  0.00  0.00     0.000 C
ATOM     23  C4  SGN B   2     -27.465  53.485  12.2750  0.00  0.00     0.000 C
ATOM     24  C5  SGN B   2     -26.317  52.936  13.0490  0.00  0.00     0.000 C
ATOM     25  O5  SGN B   2     -26.548  51.604  13.3310  0.00  0.00     0.000 O
ATOM     26   O  SGN B   2     -28.403  53.265  10.1000  0.00  0.00     0.000 O
ATOM     28  HD  SGN B   2     -29.073  53.669   9.7280  0.00  0.00     0.000 HD
BRANCH 21 30
ATOM     28   N  SGN B   2     -27.809  49.920  11.3400  0.00  0.00     0.000 N
ATOM     30  HD  SGN B   2     -27.124  49.734  10.8450  0.00  0.00     0.000 HD
ATOM     30 @NS  SGN B   2     -28.775  49.182  10.2620  0.00  0.00     0.000 S
ATOM     31   O  SGN B   2     -29.264  50.147   9.3350  0.00  0.00     0.000 OA
ATOM     32   O  SGN B   2     -27.926  48.253   9.6390  0.00  0.00     0.000 OA
ATOM     33   O  SGN B   2     -29.832  48.608  11.0050  0.00  0.00     0.000 OA
ENDBRANCH 21 30
BRANCH 24 34
ATOM     34   C  SGN B   2     -26.044  53.607  14.3450  0.00  0.00     0.000 C
ATOM     35   O  SGN B   2     -25.930  52.621  15.3090  0.00  0.00     0.000 O
ATOM     36  @S  SGN B   2     -25.441  52.886  16.7280  0.00  0.00     0.000 S
ATOM     37   O  SGN B   2     -26.651  53.159  17.4770  0.00  0.00     0.000 OA
ATOM     38   O  SGN B   2     -24.750  51.693  17.1590  0.00  0.00     0.000 OA
ATOM     39   O  SGN B   2     -24.547  54.030  16.6160  0.00  0.00     0.000 OA
ENDBRANCH 24 34
BRANCH 20 40
ATOM     40  O4  IDS B   3     -25.438  50.737  11.4810  0.00  0.00     0.000 O
BRANCH 40 44
ATOM     41  C1  IDS B   3     -22.771  48.461  11.5640  0.00  0.00     0.000 C
ATOM     42  C2  IDS B   3     -23.987  48.264  12.4680  0.00  0.00     0.000 C
ATOM     43  C3  IDS B   3     -24.462  49.518  13.2280  0.00  0.00     0.000 C
ATOM     44  C4  IDS B   3     -24.359  50.752  12.3550  0.00  0.00     0.000 C
ATOM     45  C5  IDS B   3     -23.042  50.794  11.5650  0.00  0.00     0.000 C
ATOM     46  O5  IDS B   3     -22.904  49.651  10.8020  0.00  0.00     0.000 O
ATOM     47   O  IDS B   3     -23.648  49.710  14.3660  0.00  0.00     0.000 O
ATOM     49  HD  IDS B   3     -24.367  49.774  13.8880  0.00  0.00     0.000 HD
BRANCH 42 49
ATOM     49   O  IDS B   3     -25.059  47.828  11.6820  0.00  0.00     0.000 O
ATOM     50   O  IDS B   3     -25.100  45.755  12.8000  0.00  0.00     0.000 OA
ATOM     51   O  IDS B   3     -27.148  46.782  12.2010  0.00  0.00     0.000 OA
ATOM     52   O  IDS B   3     -25.712  45.925  10.5350  0.00  0.00     0.000 OA
ATOM     53  @S  IDS B   3     -25.801  46.495  11.8160  0.00  0.00     0.000 S
ENDBRANCH 42 49
BRANCH 45 54
ATOM     54 @CA  IDS B   3     -22.845  52.027  10.6860  0.00  0.00     0.000 C
ATOM     55   O  IDS B   3     -22.960  53.139  11.1250  0.00  0.00     0.000 OA
ATOM     56   O  IDS B   3     -22.550  51.927   9.5410  0.00  0.00     0.000 OA
ENDBRANCH 45 54
BRANCH 41 57
ATOM     57  O4  SGN B   4     -21.615  48.470  12.3340  0.00  0.00     0.000 O
BRANCH 57 61
ATOM     58  C1  SGN B   4     -17.712  47.178  12.0160  0.00  0.00     0.000 C
ATOM     59  C2  SGN B   4     -18.357  47.647  10.7210  0.00  0.00     0.000 C
ATOM     60  C3  SGN B   4     -19.619  48.446  11.0310  0.00  0.00     0.000 C
ATOM     61  C4  SGN B   4     -20.589  47.634  11.8970  0.00  0.00     0.000 C
ATOM     62  C5  SGN B   4     -19.821  47.137  13.1190  0.00  0.00     0.000 C
ATOM     63  O5  SGN B   4     -18.663  46.416  12.7410  0.00  0.00     0.000 O
ATOM     64   O  SGN B   4     -20.263  48.768   9.8160  0.00  0.00     0.000 O
ATOM     66  HD  SGN B   4     -21.069  48.468   9.7170  0.00  0.00     0.000 HD
BRANCH 59 68
ATOM     66   N  SGN B   4     -17.606  47.111   9.6040  0.00  0.00     0.000 N
ATOM     68  HD  SGN B   4     -17.799  46.875  10.4150  0.00  0.00     0.000 HD
ATOM     68 @NS  SGN B   4     -16.141  47.742   9.2220  0.00  0.00     0.000 S
ATOM     69   O  SGN B   4     -16.196  49.160   9.4230  0.00  0.00     0.000 OA
ATOM     70   O  SGN B   4     -15.197  47.127  10.1100  0.00  0.00     0.000 OA
ATOM     71   O  SGN B   4     -15.948  47.384   7.8500  0.00  0.00     0.000 OA
ENDBRANCH 59 68
BRANCH 62 72
ATOM     72   C  SGN B   4     -20.645  46.208  13.9970  0.00  0.00     0.000 C
ATOM     73   O  SGN B   4     -20.690  46.820  15.2520  0.00  0.00     0.000 O
ATOM     74  @S  SGN B   4     -21.825  46.750  16.2880  0.00  0.00     0.000 S
ATOM     75   O  SGN B   4     -22.024  45.385  16.6060  0.00  0.00     0.000 OA
ATOM     76   O  SGN B   4     -21.330  47.501  17.4020  0.00  0.00     0.000 OA
ATOM     77   O  SGN B   4     -22.970  47.306  15.6480  0.00  0.00     0.000 OA
ENDBRANCH 62 72
BRANCH 58 78
ATOM     78  O4  IDS B   5     -17.238  48.287  12.7530  0.00  0.00     0.000 O
BRANCH 78 82
ATOM     79  C1  IDS B   5     -15.625  50.680  14.6670  0.00  0.00     0.000 C
ATOM     80  C2  IDS B   5     -15.317  50.583  13.2040  0.00  0.00     0.000 C
ATOM     81  C3  IDS B   5     -14.992  49.168  12.7350  0.00  0.00     0.000 C
ATOM     82  C4  IDS B   5     -15.945  48.132  13.2950  0.00  0.00     0.000 C
ATOM     83  C5  IDS B   5     -16.015  48.339  14.7750  0.00  0.00     0.000 C
ATOM     84  O5  IDS B   5     -16.505  49.638  15.0480  0.00  0.00     0.000 O
ATOM     85   O  IDS B   5     -13.699  48.850  13.1920  0.00  0.00     0.000 O
ATOM     87  HD  IDS B   5     -14.435  48.408  13.3050  0.00  0.00     0.000 HD
BRANCH 80 87
ATOM     87   O  IDS B   5     -16.426  50.992  12.5040  0.00  0.00     0.000 O
ATOM     88  @S  IDS B   5     -16.590  52.295  11.7180  0.00  0.00     0.000 S
ATOM     89   O  IDS B   5     -15.480  52.335  10.8360  0.00  0.00     0.000 OA
ATOM     90   O  IDS B   5     -17.848  52.186  11.0670  0.00  0.00     0.000 OA
ATOM     91   O  IDS B   5     -16.575  53.339  12.6810  0.00  0.00     0.000 OA
ENDBRANCH 80 87
BRANCH 83 92
ATOM     92 @CA  IDS B   5     -16.792  47.252  15.5090  0.00  0.00     0.000 C
ATOM     93   O  IDS B   5     -16.542  46.059  15.3250  0.00  0.00     0.000 OA
ATOM     94   O  IDS B   5     -17.692  47.550  16.3030  0.00  0.00     0.000 OA
ENDBRANCH 83 92
BRANCH 79 95
ATOM     95  O4  SGN B   6     -14.440  50.658  15.3920  0.00  0.00     0.000 O
BRANCH 95 99
ATOM     96  C1  SGN B   6     -13.383  50.579  19.4030  0.00  0.00     0.000 C
ATOM     97  C2  SGN B   6     -14.168  49.375  18.8970  0.00  0.00     0.000 C
ATOM     98  C3  SGN B   6     -13.968  49.329  17.3820  0.00  0.00     0.000 C
ATOM     99  C4  SGN B   6     -14.612  50.618  16.7970  0.00  0.00     0.000 C
ATOM    100  C5  SGN B   6     -13.855  51.820  17.4310  0.00  0.00     0.000 C
ATOM    101  O5  SGN B   6     -13.905  51.773  18.8540  0.00  0.00     0.000 O
BRANCH 97 104
ATOM    102   N  SGN B   6     -14.938  49.078  20.1090  0.00  0.00     0.000 N
ATOM    104  HD  SGN B   6     -14.409  49.062  20.7940  0.00  0.00     0.000 HD
ATOM    104 @NS  SGN B   6     -14.603  47.661  20.9040  0.00  0.00     0.000 S
ATOM    105   O  SGN B   6     -13.526  47.004  20.1950  0.00  0.00     0.000 OA
ATOM    106   O  SGN B   6     -14.229  48.019  22.2530  0.00  0.00     0.000 OA
ATOM    107   O  SGN B   6     -15.818  46.878  20.8570  0.00  0.00     0.000 OA
ENDBRANCH 97 104
BRANCH 100 108
ATOM    108   C  SGN B   6     -14.351  53.207  17.0400  0.00  0.00     0.000 C
ATOM    109   O  SGN B   6     -15.757  53.206  17.0030  0.00  0.00     0.000 O
ATOM    110  @S  SGN B   6     -16.668  54.434  16.6370  0.00  0.00     0.000 S
ATOM    111   O  SGN B   6     -16.012  55.100  15.5380  0.00  0.00     0.000 OA
ATOM    112   O  SGN B   6     -17.960  53.887  16.2540  0.00  0.00     0.000 OA
ATOM    113   O  SGN B   6     -16.726  55.247  17.8300  0.00  0.00     0.000 OA
ENDBRANCH 100 108
ENDBRANCH 95 99
ENDBRANCH 79 95
ENDBRANCH 78 82
ENDBRANCH 58 78
ENDBRANCH 57 61
ENDBRANCH 41 57
ENDBRANCH 40 44
ENDBRANCH 20 40
ENDBRANCH 19 23
ENDBRANCH 1 19
TORSDOF 22
ENDMDL
MODEL 85
REMARK VINA RESULT:       4.4      2.471      8.900
ROOT
ATOM      1  C1  IDS B   1     -22.599  46.257  13.8550  0.00  0.00     0.000 C
ATOM      2  C2  IDS B   1     -23.436  45.382  12.9590  0.00  0.00     0.000 C
ATOM      3  C3  IDS B   1     -24.884  45.112  13.4320  0.00  0.00     0.000 C
ATOM      4  C4  IDS B   1     -25.485  46.265  14.3210  0.00  0.00     0.000 C
ATOM      5  C5  IDS B   1     -24.400  47.041  15.1050  0.00  0.00     0.000 C
ATOM      6  O5  IDS B   1     -23.345  47.390  14.2500  0.00  0.00     0.000 O
ATOM      7   O  IDS B   1     -24.874  43.875  14.1380  0.00  0.00     0.000 O
ATOM      9  HD  IDS B   1     -25.546  44.353  14.4020  0.00  0.00     0.000 HD
ATOM      9   O  IDS B   1     -26.135  47.174  13.4610  0.00  0.00     0.000 O
ATOM     11  HD  IDS B   1     -26.807  47.652  13.7250  0.00  0.00     0.000 HD
ENDROOT
BRANCH 2 11
ATOM     11   O  IDS B   1     -23.535  45.961  11.7040  0.00  0.00     0.000 O
ATOM     12  @S  IDS B   1     -22.951  45.351  10.4150  0.00  0.00     0.000 S
ATOM     13   O  IDS B   1     -21.845  44.541  10.8850  0.00  0.00     0.000 OA
ATOM     14   O  IDS B   1     -24.007  44.557   9.8130  0.00  0.00     0.000 OA
ATOM     15   O  IDS B   1     -22.553  46.476   9.5910  0.00  0.00     0.000 OA
ENDBRANCH 2 11
BRANCH 5 16
ATOM     16 @CA  IDS B   1     -24.867  48.272  15.8770  0.00  0.00     0.000 C
ATOM     17   O  IDS B   1     -24.224  48.722  16.8230  0.00  0.00     0.000 OA
ATOM     18   O  IDS B   1     -25.900  48.854  15.5570  0.00  0.00     0.000 OA
ENDBRANCH 5 16
BRANCH 1 19
ATOM     19  O4  SGN B   2     -22.214  45.491  14.9780  0.00  0.00     0.000 O
BRANCH 19 23
ATOM     20  C1  SGN B   2     -18.479  47.032  15.6360  0.00  0.00     0.000 C
ATOM     21  C2  SGN B   2     -18.639  45.924  14.6190  0.00  0.00     0.000 C
ATOM     22  C3  SGN B   2     -20.036  45.917  14.1110  0.00  0.00     0.000 C
ATOM     23  C4  SGN B   2     -20.880  45.595  15.3230  0.00  0.00     0.000 C
ATOM     24  C5  SGN B   2     -20.729  46.768  16.2280  0.00  0.00     0.000 C
ATOM     25  O5  SGN B   2     -19.425  46.836  16.6780  0.00  0.00     0.000 O
ATOM     26   O  SGN B   2     -20.173  44.930  13.1500  0.00  0.00     0.000 O
ATOM     28  HD  SGN B   2     -20.351  44.219  12.6900  0.00  0.00     0.000 HD
BRANCH 21 30
ATOM     28   N  SGN B   2     -17.293  45.648  15.0300  0.00  0.00     0.000 N
ATOM     30  HD  SGN B   2     -17.035  46.460  15.1830  0.00  0.00     0.000 HD
ATOM     30 @NS  SGN B   2     -16.176  45.525  13.8560  0.00  0.00     0.000 S
ATOM     31   O  SGN B   2     -16.764  45.881  12.6090  0.00  0.00     0.000 OA
ATOM     32   O  SGN B   2     -15.189  46.448  14.2430  0.00  0.00     0.000 OA
ATOM     33   O  SGN B   2     -15.751  44.176  13.8540  0.00  0.00     0.000 OA
ENDBRANCH 21 30
BRANCH 24 34
ATOM     34   C  SGN B   2     -21.598  46.759  17.4310  0.00  0.00     0.000 C
ATOM     35   O  SGN B   2     -21.329  45.597  18.1310  0.00  0.00     0.000 O
ATOM     36  @S  SGN B   2     -21.860  45.318  19.5330  0.00  0.00     0.000 S
ATOM     37   O  SGN B   2     -23.112  44.623  19.3080  0.00  0.00     0.000 OA
ATOM     38   O  SGN B   2     -20.864  44.514  20.2020  0.00  0.00     0.000 OA
ATOM     39   O  SGN B   2     -22.016  46.628  20.1490  0.00  0.00     0.000 OA
ENDBRANCH 24 34
BRANCH 20 40
ATOM     40  O4  IDS B   3     -18.643  48.278  15.0310  0.00  0.00     0.000 O
BRANCH 40 44
ATOM     41  C1  IDS B   3     -17.762  51.529  14.0530  0.00  0.00     0.000 C
ATOM     42  C2  IDS B   3     -16.695  50.446  14.1920  0.00  0.00     0.000 C
ATOM     43  C3  IDS B   3     -16.763  49.604  15.4810  0.00  0.00     0.000 C
ATOM     44  C4  IDS B   3     -18.200  49.303  15.8570  0.00  0.00     0.000 C
ATOM     45  C5  IDS B   3     -19.108  50.534  15.7010  0.00  0.00     0.000 C
ATOM     46  O5  IDS B   3     -19.039  51.020  14.4100  0.00  0.00     0.000 O
ATOM     47   O  IDS B   3     -16.169  50.323  16.5410  0.00  0.00     0.000 O
ATOM     49  HD  IDS B   3     -16.428  49.617  16.1110  0.00  0.00     0.000 HD
BRANCH 42 49
ATOM     49   O  IDS B   3     -16.817  49.560  13.1150  0.00  0.00     0.000 O
ATOM     50   O  IDS B   3     -15.510  50.964  11.7480  0.00  0.00     0.000 OA
ATOM     51   O  IDS B   3     -15.237  48.619  11.5850  0.00  0.00     0.000 OA
ATOM     52   O  IDS B   3     -17.229  49.640  10.8380  0.00  0.00     0.000 OA
ATOM     53  @S  IDS B   3     -16.155  49.703  11.7420  0.00  0.00     0.000 S
ENDBRANCH 42 49
BRANCH 45 54
ATOM     54 @CA  IDS B   3     -20.569  50.323  16.0930  0.00  0.00     0.000 C
ATOM     55   O  IDS B   3     -21.397  49.993  15.2880  0.00  0.00     0.000 OA
ATOM     56   O  IDS B   3     -20.931  50.455  17.2150  0.00  0.00     0.000 OA
ENDBRANCH 45 54
BRANCH 41 57
ATOM     57  O4  SGN B   4     -17.413  52.629  14.8270  0.00  0.00     0.000 O
BRANCH 57 61
ATOM     58  C1  SGN B   4     -20.187  55.261  13.2860  0.00  0.00     0.000 C
ATOM     59  C2  SGN B   4     -18.986  54.980  12.3990  0.00  0.00     0.000 C
ATOM     60  C3  SGN B   4     -18.261  53.730  12.8900  0.00  0.00     0.000 C
ATOM     61  C4  SGN B   4     -17.869  53.863  14.3660  0.00  0.00     0.000 C
ATOM     62  C5  SGN B   4     -19.124  54.235  15.1520  0.00  0.00     0.000 C
ATOM     63  O5  SGN B   4     -19.737  55.396  14.6230  0.00  0.00     0.000 O
ATOM     64   O  SGN B   4     -17.085  53.557  12.1270  0.00  0.00     0.000 O
ATOM     66  HD  SGN B   4     -16.338  53.565  12.5650  0.00  0.00     0.000 HD
BRANCH 59 68
ATOM     66   N  SGN B   4     -18.849  56.020  11.4000  0.00  0.00     0.000 N
ATOM     68  HD  SGN B   4     -19.117  55.955  12.2210  0.00  0.00     0.000 HD
ATOM     68 @NS  SGN B   4     -19.914  56.108  10.1560  0.00  0.00     0.000 S
ATOM     69   O  SGN B   4     -20.240  54.774   9.7470  0.00  0.00     0.000 OA
ATOM     70   O  SGN B   4     -21.067  56.794  10.6650  0.00  0.00     0.000 OA
ATOM     71   O  SGN B   4     -19.217  56.842   9.1440  0.00  0.00     0.000 OA
ENDBRANCH 59 68
BRANCH 62 72
ATOM     72   C  SGN B   4     -18.840  54.520  16.6190  0.00  0.00     0.000 C
ATOM     73   O  SGN B   4     -19.198  55.856  16.8170  0.00  0.00     0.000 O
ATOM     74  @S  SGN B   4     -19.751  56.496  18.1020  0.00  0.00     0.000 S
ATOM     75   O  SGN B   4     -18.798  56.279  19.1260  0.00  0.00     0.000 OA
ATOM     76   O  SGN B   4     -19.889  57.882  17.7720  0.00  0.00     0.000 OA
ATOM     77   O  SGN B   4     -20.974  55.819  18.3780  0.00  0.00     0.000 OA
ENDBRANCH 62 72
BRANCH 58 78
ATOM     78  O4  IDS B   5     -21.148  54.235  13.1450  0.00  0.00     0.000 O
BRANCH 78 82
ATOM     79  C1  IDS B   5     -23.876  52.141  12.7260  0.00  0.00     0.000 C
ATOM     80  C2  IDS B   5     -23.236  52.761  11.5210  0.00  0.00     0.000 C
ATOM     81  C3  IDS B   5     -23.033  54.269  11.6380  0.00  0.00     0.000 C
ATOM     82  C4  IDS B   5     -22.478  54.682  12.9860  0.00  0.00     0.000 C
ATOM     83  C5  IDS B   5     -23.328  54.045  14.0380  0.00  0.00     0.000 C
ATOM     84  O5  IDS B   5     -23.270  52.637  13.9060  0.00  0.00     0.000 O
ATOM     85   O  IDS B   5     -24.290  54.885  11.4890  0.00  0.00     0.000 O
ATOM     87  HD  IDS B   5     -23.717  54.979  12.1310  0.00  0.00     0.000 HD
BRANCH 80 87
ATOM     87   O  IDS B   5     -21.993  52.202  11.3590  0.00  0.00     0.000 O
ATOM     88  @S  IDS B   5     -21.637  50.980  10.5080  0.00  0.00     0.000 S
ATOM     89   O  IDS B   5     -22.158  51.263   9.2200  0.00  0.00     0.000 OA
ATOM     90   O  IDS B   5     -20.220  50.886  10.5570  0.00  0.00     0.000 OA
ATOM     91   O  IDS B   5     -22.267  49.870  11.1330  0.00  0.00     0.000 OA
ENDBRANCH 80 87
BRANCH 83 92
ATOM     92 @CA  IDS B   5     -23.010  54.516  15.4520  0.00  0.00     0.000 C
ATOM     93   O  IDS B   5     -23.097  55.707  15.7590  0.00  0.00     0.000 OA
ATOM     94   O  IDS B   5     -22.653  53.709  16.3190  0.00  0.00     0.000 OA
ENDBRANCH 83 92
BRANCH 79 95
ATOM     95  O4  SGN B   6     -25.244  52.378  12.6980  0.00  0.00     0.000 O
BRANCH 95 99
ATOM     96  C1  SGN B   6     -28.479  50.555  10.8490  0.00  0.00     0.000 C
ATOM     97  C2  SGN B   6     -27.367  49.624  11.3160  0.00  0.00     0.000 C
ATOM     98  C3  SGN B   6     -26.600  50.372  12.4070  0.00  0.00     0.000 C
ATOM     99  C4  SGN B   6     -25.952  51.617  11.7370  0.00  0.00     0.000 C
ATOM    100  C5  SGN B   6     -27.119  52.477  11.1750  0.00  0.00     0.000 C
ATOM    101  O5  SGN B   6     -27.933  51.728  10.2770  0.00  0.00     0.000 O
BRANCH 97 104
ATOM    102   N  SGN B   6     -27.296  48.569  10.3000  0.00  0.00     0.000 N
ATOM    104  HD  SGN B   6     -28.096  48.360  10.0410  0.00  0.00     0.000 HD
ATOM    104 @NS  SGN B   6     -27.965  47.097  10.6740  0.00  0.00     0.000 S
ATOM    105   O  SGN B   6     -28.540  47.199  11.9970  0.00  0.00     0.000 OA
ATOM    106   O  SGN B   6     -28.963  46.826   9.6640  0.00  0.00     0.000 OA
ATOM    107   O  SGN B   6     -26.878  46.145  10.6450  0.00  0.00     0.000 OA
ENDBRANCH 97 104
BRANCH 100 108
ATOM    108   C  SGN B   6     -26.718  53.740  10.4220  0.00  0.00     0.000 C
ATOM    109   O  SGN B   6     -26.718  53.480   9.0400  0.00  0.00     0.000 O
ATOM    110  @S  SGN B   6     -26.356  54.510   7.9100  0.00  0.00     0.000 S
ATOM    111   O  SGN B   6     -25.230  55.264   8.4060  0.00  0.00     0.000 OA
ATOM    112   O  SGN B   6     -26.015  53.727   6.7330  0.00  0.00     0.000 OA
ATOM    113   O  SGN B   6     -27.537  55.324   7.7290  0.00  0.00     0.000 OA
ENDBRANCH 100 108
ENDBRANCH 95 99
ENDBRANCH 79 95
ENDBRANCH 78 82
ENDBRANCH 58 78
ENDBRANCH 57 61
ENDBRANCH 41 57
ENDBRANCH 40 44
ENDBRANCH 20 40
ENDBRANCH 19 23
ENDBRANCH 1 19
TORSDOF 22
ENDMDL
MODEL 86
REMARK VINA RESULT:       4.5      3.033      7.325
ROOT
ATOM      1  C1  IDS B   1     -24.883  55.260  10.9470  0.00  0.00     0.000 C
ATOM      2  C2  IDS B   1     -25.161  54.367   9.7670  0.00  0.00     0.000 C
ATOM      3  C3  IDS B   1     -25.924  53.055  10.0710  0.00  0.00     0.000 C
ATOM      4  C4  IDS B   1     -26.872  53.150  11.3250  0.00  0.00     0.000 C
ATOM      5  C5  IDS B   1     -26.379  54.181  12.3690  0.00  0.00     0.000 C
ATOM      6  O5  IDS B   1     -26.049  55.388  11.7360  0.00  0.00     0.000 O
ATOM      7   O  IDS B   1     -24.950  52.030  10.2430  0.00  0.00     0.000 O
ATOM      9  HD  IDS B   1     -25.677  51.811  10.6590  0.00  0.00     0.000 HD
ATOM      9   O  IDS B   1     -28.141  53.564  10.8720  0.00  0.00     0.000 O
ATOM     11  HD  IDS B   1     -28.869  53.344  11.2880  0.00  0.00     0.000 HD
ENDROOT
BRANCH 2 11
ATOM     11   O  IDS B   1     -25.920  55.053   8.8320  0.00  0.00     0.000 O
ATOM     12  @S  IDS B   1     -25.462  55.357   7.3920  0.00  0.00     0.000 S
ATOM     13   O  IDS B   1     -24.016  55.380   7.4860  0.00  0.00     0.000 OA
ATOM     14   O  IDS B   1     -25.949  54.270   6.5620  0.00  0.00     0.000 OA
ATOM     15   O  IDS B   1     -26.053  56.636   7.0510  0.00  0.00     0.000 OA
ENDBRANCH 2 11
BRANCH 5 16
ATOM     16 @CA  IDS B   1     -27.307  54.454  13.5480  0.00  0.00     0.000 C
ATOM     17   O  IDS B   1     -27.158  53.891  14.6300  0.00  0.00     0.000 OA
ATOM     18   O  IDS B   1     -28.226  55.263  13.4440  0.00  0.00     0.000 OA
ENDBRANCH 5 16
BRANCH 1 19
ATOM     19  O4  SGN B   2     -23.831  54.683  11.6930  0.00  0.00     0.000 O
BRANCH 19 23
ATOM     20  C1  SGN B   2     -19.827  55.530  11.6250  0.00  0.00     0.000 C
ATOM     21  C2  SGN B   2     -20.797  56.563  11.0950  0.00  0.00     0.000 C
ATOM     22  C3  SGN B   2     -22.131  56.353  11.7160  0.00  0.00     0.000 C
ATOM     23  C4  SGN B   2     -22.562  54.985  11.2380  0.00  0.00     0.000 C
ATOM     24  C5  SGN B   2     -21.609  54.031  11.8700  0.00  0.00     0.000 C
ATOM     25  O5  SGN B   2     -20.344  54.236  11.3530  0.00  0.00     0.000 O
ATOM     26   O  SGN B   2     -23.009  57.322  11.2630  0.00  0.00     0.000 O
ATOM     28  HD  SGN B   2     -23.629  57.784  10.8730  0.00  0.00     0.000 HD
BRANCH 21 30
ATOM     28   N  SGN B   2     -19.803  56.948  10.1360  0.00  0.00     0.000 N
ATOM     30  HD  SGN B   2     -19.104  56.633  10.5390  0.00  0.00     0.000 HD
ATOM     30 @NS  SGN B   2     -19.191  58.447  10.2720  0.00  0.00     0.000 S
ATOM     31   O  SGN B   2     -19.684  59.049  11.4650  0.00  0.00     0.000 OA
ATOM     32   O  SGN B   2     -17.804  58.233  10.3380  0.00  0.00     0.000 OA
ATOM     33   O  SGN B   2     -19.623  59.156   9.1270  0.00  0.00     0.000 OA
ENDBRANCH 21 30
BRANCH 24 34
ATOM     34   C  SGN B   2     -21.924  52.594  11.6760  0.00  0.00     0.000 C
ATOM     35   O  SGN B   2     -20.780  51.976  11.2030  0.00  0.00     0.000 O
ATOM     36  @S  SGN B   2     -20.631  50.464  11.0800  0.00  0.00     0.000 S
ATOM     37   O  SGN B   2     -21.073  50.171   9.7310  0.00  0.00     0.000 OA
ATOM     38   O  SGN B   2     -19.237  50.164  11.3100  0.00  0.00     0.000 OA
ATOM     39   O  SGN B   2     -21.492  49.911  12.1160  0.00  0.00     0.000 OA
ENDBRANCH 24 34
BRANCH 20 40
ATOM     40  O4  IDS B   3     -19.615  55.715  12.9910  0.00  0.00     0.000 O
BRANCH 40 44
ATOM     41  C1  IDS B   3     -17.781  55.615  15.9800  0.00  0.00     0.000 C
ATOM     42  C2  IDS B   3     -18.730  56.776  15.6910  0.00  0.00     0.000 C
ATOM     43  C3  IDS B   3     -18.617  57.395  14.2840  0.00  0.00     0.000 C
ATOM     44  C4  IDS B   3     -18.391  56.324  13.2360  0.00  0.00     0.000 C
ATOM     45  C5  IDS B   3     -17.364  55.276  13.6930  0.00  0.00     0.000 C
ATOM     46  O5  IDS B   3     -17.758  54.707  14.8880  0.00  0.00     0.000 O
ATOM     47   O  IDS B   3     -17.520  58.285  14.2510  0.00  0.00     0.000 O
ATOM     49  HD  IDS B   3     -18.288  57.967  14.0080  0.00  0.00     0.000 HD
BRANCH 42 49
ATOM     49   O  IDS B   3     -20.045  56.323  15.8360  0.00  0.00     0.000 O
ATOM     50   O  IDS B   3     -19.857  56.378  18.1840  0.00  0.00     0.000 OA
ATOM     51   O  IDS B   3     -21.889  57.055  17.1750  0.00  0.00     0.000 OA
ATOM     52   O  IDS B   3     -21.224  54.791  17.1110  0.00  0.00     0.000 OA
ATOM     53  @S  IDS B   3     -20.799  56.130  17.1550  0.00  0.00     0.000 S
ENDBRANCH 42 49
BRANCH 45 54
ATOM     54 @CA  IDS B   3     -17.054  54.178  12.6780  0.00  0.00     0.000 C
ATOM     55   O  IDS B   3     -16.254  54.342  11.7960  0.00  0.00     0.000 OA
ATOM     56   O  IDS B   3     -17.578  53.116  12.7390  0.00  0.00     0.000 OA
ENDBRANCH 45 54
BRANCH 41 57
ATOM     57  O4  SGN B   4     -16.514  56.109  16.2640  0.00  0.00     0.000 O
BRANCH 57 61
ATOM     58  C1  SGN B   4     -14.656  52.600  17.3760  0.00  0.00     0.000 C
ATOM     59  C2  SGN B   4     -15.710  53.119  18.3400  0.00  0.00     0.000 C
ATOM     60  C3  SGN B   4     -16.574  54.167  17.6470  0.00  0.00     0.000 C
ATOM     61  C4  SGN B   4     -15.715  55.298  17.0690  0.00  0.00     0.000 C
ATOM     62  C5  SGN B   4     -14.637  54.665  16.1930  0.00  0.00     0.000 C
ATOM     63  O5  SGN B   4     -13.892  53.700  16.9110  0.00  0.00     0.000 O
ATOM     64   O  SGN B   4     -17.466  54.720  18.5930  0.00  0.00     0.000 O
ATOM     66  HD  SGN B   4     -17.404  55.573  18.7280  0.00  0.00     0.000 HD
BRANCH 59 68
ATOM     66   N  SGN B   4     -15.529  52.515  19.6450  0.00  0.00     0.000 N
ATOM     68  HD  SGN B   4     -15.030  52.768  18.9840  0.00  0.00     0.000 HD
ATOM     68 @NS  SGN B   4     -15.907  50.936  19.8770  0.00  0.00     0.000 S
ATOM     69   O  SGN B   4     -17.085  50.638  19.1170  0.00  0.00     0.000 OA
ATOM     70   O  SGN B   4     -14.780  50.183  19.4090  0.00  0.00     0.000 OA
ATOM     71   O  SGN B   4     -16.118  50.826  21.2890  0.00  0.00     0.000 OA
ENDBRANCH 59 68
BRANCH 62 72
ATOM     72   C  SGN B   4     -13.637  55.680  15.6600  0.00  0.00     0.000 C
ATOM     73   O  SGN B   4     -13.988  55.886  14.3240  0.00  0.00     0.000 O
ATOM     74  @S  SGN B   4     -13.825  57.176  13.5010  0.00  0.00     0.000 S
ATOM     75   O  SGN B   4     -12.450  57.513  13.5120  0.00  0.00     0.000 OA
ATOM     76   O  SGN B   4     -14.286  56.818  12.1930  0.00  0.00     0.000 OA
ATOM     77   O  SGN B   4     -14.608  58.162  14.1660  0.00  0.00     0.000 OA
ENDBRANCH 62 72
BRANCH 58 78
ATOM     78  O4  IDS B   5     -15.270  51.888  16.3200  0.00  0.00     0.000 O
BRANCH 78 82
ATOM     79  C1  IDS B   5     -16.222  49.930  13.6270  0.00  0.00     0.000 C
ATOM     80  C2  IDS B   5     -16.535  49.466  15.0170  0.00  0.00     0.000 C
ATOM     81  C3  IDS B   5     -15.338  49.503  15.9630  0.00  0.00     0.000 C
ATOM     82  C4  IDS B   5     -14.536  50.782  15.8420  0.00  0.00     0.000 C
ATOM     83  C5  IDS B   5     -14.239  50.992  14.3920  0.00  0.00     0.000 C
ATOM     84  O5  IDS B   5     -15.452  51.117  13.6740  0.00  0.00     0.000 O
ATOM     85   O  IDS B   5     -14.490  48.433  15.6240  0.00  0.00     0.000 O
ATOM     87  HD  IDS B   5     -14.294  49.273  15.6980  0.00  0.00     0.000 HD
BRANCH 80 87
ATOM     87   O  IDS B   5     -17.488  50.302  15.5440  0.00  0.00     0.000 O
ATOM     88  @S  IDS B   5     -18.908  49.926  15.9750  0.00  0.00     0.000 S
ATOM     89   O  IDS B   5     -18.745  48.835  16.8660  0.00  0.00     0.000 OA
ATOM     90   O  IDS B   5     -19.443  51.096  16.5760  0.00  0.00     0.000 OA
ATOM     91   O  IDS B   5     -19.599  49.574  14.7840  0.00  0.00     0.000 OA
ENDBRANCH 80 87
BRANCH 83 92
ATOM     92 @CA  IDS B   5     -13.276  52.142  14.1230  0.00  0.00     0.000 C
ATOM     93   O  IDS B   5     -12.217  52.242  14.7470  0.00  0.00     0.000 OA
ATOM     94   O  IDS B   5     -13.543  53.001  13.2740  0.00  0.00     0.000 OA
ENDBRANCH 83 92
BRANCH 79 95
ATOM     95  O4  SGN B   6     -15.579  48.913  12.9330  0.00  0.00     0.000 O
BRANCH 95 99
ATOM     96  C1  SGN B   6     -14.074  48.542   9.0850  0.00  0.00     0.000 C
ATOM     97  C2  SGN B   6     -14.012  49.938   9.6930  0.00  0.00     0.000 C
ATOM     98  C3  SGN B   6     -14.072  49.756  11.2100  0.00  0.00     0.000 C
ATOM     99  C4  SGN B   6     -15.460  49.137  11.5400  0.00  0.00     0.000 C
ATOM    100  C5  SGN B   6     -15.523  47.768  10.8040  0.00  0.00     0.000 C
ATOM    101  O5  SGN B   6     -15.304  47.920   9.4040  0.00  0.00     0.000 O
BRANCH 97 104
ATOM    102   N  SGN B   6     -13.416  50.118   8.3660  0.00  0.00     0.000 N
ATOM    104  HD  SGN B   6     -12.596  50.384   8.4490  0.00  0.00     0.000 HD
ATOM    104 @NS  SGN B   6     -12.961  51.653   7.9300  0.00  0.00     0.000 S
ATOM    105   O  SGN B   6     -13.241  52.528   9.0470  0.00  0.00     0.000 OA
ATOM    106   O  SGN B   6     -11.550  51.597   7.6210  0.00  0.00     0.000 OA
ATOM    107   O  SGN B   6     -13.765  51.997   6.7790  0.00  0.00     0.000 OA
ENDBRANCH 97 104
BRANCH 100 108
ATOM    108   C  SGN B   6     -16.827  46.991  10.9420  0.00  0.00     0.000 C
ATOM    109   O  SGN B   6     -17.212  46.965  12.2940  0.00  0.00     0.000 O
ATOM    110  @S  SGN B   6     -18.495  46.262  12.8700  0.00  0.00     0.000 S
ATOM    111   O  SGN B   6     -18.616  45.012  12.1590  0.00  0.00     0.000 OA
ATOM    112   O  SGN B   6     -18.251  46.063  14.2900  0.00  0.00     0.000 OA
ATOM    113   O  SGN B   6     -19.590  47.166  12.6030  0.00  0.00     0.000 OA
ENDBRANCH 100 108
ENDBRANCH 95 99
ENDBRANCH 79 95
ENDBRANCH 78 82
ENDBRANCH 58 78
ENDBRANCH 57 61
ENDBRANCH 41 57
ENDBRANCH 40 44
ENDBRANCH 20 40
ENDBRANCH 19 23
ENDBRANCH 1 19
TORSDOF 22
ENDMDL
MODEL 87
REMARK VINA RESULT:       4.6      2.569      8.125
ROOT
ATOM      1  C1  IDS B   1     -27.905  52.178  10.4660  0.00  0.00     0.000 C
ATOM      2  C2  IDS B   1     -28.764  52.879  11.4860  0.00  0.00     0.000 C
ATOM      3  C3  IDS B   1     -28.353  54.327  11.8440  0.00  0.00     0.000 C
ATOM      4  C4  IDS B   1     -27.608  55.079  10.6780  0.00  0.00     0.000 C
ATOM      5  C5  IDS B   1     -26.837  54.117   9.7430  0.00  0.00     0.000 C
ATOM      6  O5  IDS B   1     -27.657  53.041   9.3750  0.00  0.00     0.000 O
ATOM      7   O  IDS B   1     -27.538  54.258  13.0100  0.00  0.00     0.000 O
ATOM      9  HD  IDS B   1     -27.358  54.984  12.5730  0.00  0.00     0.000 HD
ATOM      9   O  IDS B   1     -28.583  55.746   9.9070  0.00  0.00     0.000 O
ATOM     11  HD  IDS B   1     -28.402  56.471   9.4700  0.00  0.00     0.000 HD
ENDROOT
BRANCH 2 11
ATOM     11   O  IDS B   1     -30.071  52.944  11.0280  0.00  0.00     0.000 O
ATOM     12  @S  IDS B   1     -31.252  52.174  11.6490  0.00  0.00     0.000 S
ATOM     13   O  IDS B   1     -30.629  51.016  12.2570  0.00  0.00     0.000 OA
ATOM     14   O  IDS B   1     -31.857  53.059  12.6280  0.00  0.00     0.000 OA
ATOM     15   O  IDS B   1     -32.141  51.859  10.5490  0.00  0.00     0.000 OA
ENDBRANCH 2 11
BRANCH 5 16
ATOM     16 @CA  IDS B   1     -26.207  54.734   8.4980  0.00  0.00     0.000 C
ATOM     17   O  IDS B   1     -26.790  55.593   7.8400  0.00  0.00     0.000 OA
ATOM     18   O  IDS B   1     -25.086  54.391   8.1310  0.00  0.00     0.000 OA
ENDBRANCH 5 16
BRANCH 1 19
ATOM     19  O4  SGN B   2     -26.697  51.804  11.0960  0.00  0.00     0.000 O
BRANCH 19 23
ATOM     20  C1  SGN B   2     -25.739  48.520  13.3430  0.00  0.00     0.000 C
ATOM     21  C2  SGN B   2     -26.783  48.378  12.2580  0.00  0.00     0.000 C
ATOM     22  C3  SGN B   2     -26.572  49.428  11.2280  0.00  0.00     0.000 C
ATOM     23  C4  SGN B   2     -26.800  50.731  11.9610  0.00  0.00     0.000 C
ATOM     24  C5  SGN B   2     -25.686  50.826  12.9450  0.00  0.00     0.000 C
ATOM     25  O5  SGN B   2     -25.823  49.828  13.8900  0.00  0.00     0.000 O
ATOM     26   O  SGN B   2     -27.501  49.275  10.2140  0.00  0.00     0.000 O
ATOM     28  HD  SGN B   2     -28.166  49.331   9.6620  0.00  0.00     0.000 HD
BRANCH 21 30
ATOM     28   N  SGN B   2     -26.570  47.020  11.8500  0.00  0.00     0.000 N
ATOM     30  HD  SGN B   2     -27.076  47.014  11.1470  0.00  0.00     0.000 HD
ATOM     30 @NS  SGN B   2     -27.517  45.889  12.5300  0.00  0.00     0.000 S
ATOM     31   O  SGN B   2     -28.515  46.527  13.3210  0.00  0.00     0.000 OA
ATOM     32   O  SGN B   2     -28.080  45.223  11.4280  0.00  0.00     0.000 OA
ATOM     33   O  SGN B   2     -26.667  45.089  13.3290  0.00  0.00     0.000 OA
ENDBRANCH 21 30
BRANCH 24 34
ATOM     34   C  SGN B   2     -25.601  52.109  13.6860  0.00  0.00     0.000 C
ATOM     35   O  SGN B   2     -26.022  51.871  14.9830  0.00  0.00     0.000 O
ATOM     36  @S  SGN B   2     -25.879  52.885  16.1120  0.00  0.00     0.000 S
ATOM     37   O  SGN B   2     -27.126  53.624  16.0860  0.00  0.00     0.000 OA
ATOM     38   O  SGN B   2     -25.681  52.128  17.3260  0.00  0.00     0.000 OA
ATOM     39   O  SGN B   2     -24.713  53.683  15.7630  0.00  0.00     0.000 OA
ENDBRANCH 24 34
BRANCH 20 40
ATOM     40  O4  IDS B   3     -24.466  48.264  12.8330  0.00  0.00     0.000 O
BRANCH 40 44
ATOM     41  C1  IDS B   3     -21.133  47.257  12.4080  0.00  0.00     0.000 C
ATOM     42  C2  IDS B   3     -22.271  46.246  12.2820  0.00  0.00     0.000 C
ATOM     43  C3  IDS B   3     -23.332  46.293  13.3990  0.00  0.00     0.000 C
ATOM     44  C4  IDS B   3     -23.632  47.723  13.8020  0.00  0.00     0.000 C
ATOM     45  C5  IDS B   3     -22.354  48.568  13.9280  0.00  0.00     0.000 C
ATOM     46  O5  IDS B   3     -21.641  48.540  12.7450  0.00  0.00     0.000 O
ATOM     47   O  IDS B   3     -22.848  45.605  14.5330  0.00  0.00     0.000 O
ATOM     49  HD  IDS B   3     -23.450  45.925  13.9990  0.00  0.00     0.000 HD
BRANCH 42 49
ATOM     49   O  IDS B   3     -22.936  46.473  11.0720  0.00  0.00     0.000 O
ATOM     50   O  IDS B   3     -22.988  44.165  10.6090  0.00  0.00     0.000 OA
ATOM     51   O  IDS B   3     -24.869  45.492  10.0590  0.00  0.00     0.000 OA
ATOM     52   O  IDS B   3     -22.843  45.748   8.8750  0.00  0.00     0.000 OA
ATOM     53  @S  IDS B   3     -23.443  45.406  10.0990  0.00  0.00     0.000 S
ENDBRANCH 42 49
BRANCH 45 54
ATOM     54 @CA  IDS B   3     -22.568  50.015  14.3650  0.00  0.00     0.000 C
ATOM     55   O  IDS B   3     -23.022  50.288  15.4430  0.00  0.00     0.000 OA
ATOM     56   O  IDS B   3     -22.270  50.923  13.6610  0.00  0.00     0.000 OA
ENDBRANCH 45 54
BRANCH 41 57
ATOM     57  O4  SGN B   4     -20.212  46.807  13.3450  0.00  0.00     0.000 O
BRANCH 57 61
ATOM     58  C1  SGN B   4     -17.205  49.524  12.5870  0.00  0.00     0.000 C
ATOM     59  C2  SGN B   4     -17.405  48.454  11.5280  0.00  0.00     0.000 C
ATOM     60  C3  SGN B   4     -18.758  47.777  11.7240  0.00  0.00     0.000 C
ATOM     61  C4  SGN B   4     -18.894  47.216  13.1440  0.00  0.00     0.000 C
ATOM     62  C5  SGN B   4     -18.586  48.344  14.1250  0.00  0.00     0.000 C
ATOM     63  O5  SGN B   4     -17.320  48.920  13.8640  0.00  0.00     0.000 O
ATOM     64   O  SGN B   4     -18.870  46.709  10.8060  0.00  0.00     0.000 O
ATOM     66  HD  SGN B   4     -18.978  45.920  11.1460  0.00  0.00     0.000 HD
BRANCH 59 68
ATOM     66   N  SGN B   4     -16.189  48.383  10.7430  0.00  0.00     0.000 N
ATOM     68  HD  SGN B   4     -16.415  48.592  11.5530  0.00  0.00     0.000 HD
ATOM     68 @NS  SGN B   4     -15.869  49.534   9.6200  0.00  0.00     0.000 S
ATOM     69   O  SGN B   4     -17.101  49.897   8.9840  0.00  0.00     0.000 OA
ATOM     70   O  SGN B   4     -15.305  50.643  10.3340  0.00  0.00     0.000 OA
ATOM     71   O  SGN B   4     -14.946  48.908   8.7230  0.00  0.00     0.000 OA
ENDBRANCH 59 68
BRANCH 62 72
ATOM     72   C  SGN B   4     -18.564  47.878  15.5730  0.00  0.00     0.000 C
ATOM     73   O  SGN B   4     -17.214  47.797  15.9200  0.00  0.00     0.000 O
ATOM     74  @S  SGN B   4     -16.588  48.033  17.3060  0.00  0.00     0.000 S
ATOM     75   O  SGN B   4     -17.190  47.118  18.2030  0.00  0.00     0.000 OA
ATOM     76   O  SGN B   4     -15.194  47.766  17.1110  0.00  0.00     0.000 OA
ATOM     77   O  SGN B   4     -16.900  49.379  17.6500  0.00  0.00     0.000 OA
ENDBRANCH 62 72
BRANCH 58 78
ATOM     78  O4  IDS B   5     -18.137  50.571  12.4040  0.00  0.00     0.000 O
BRANCH 78 82
ATOM     79  C1  IDS B   5     -19.950  53.515  12.6030  0.00  0.00     0.000 C
ATOM     80  C2  IDS B   5     -19.591  52.966  11.2560  0.00  0.00     0.000 C
ATOM     81  C3  IDS B   5     -18.114  52.609  11.1100  0.00  0.00     0.000 C
ATOM     82  C4  IDS B   5     -17.572  51.861  12.3120  0.00  0.00     0.000 C
ATOM     83  C5  IDS B   5     -17.947  52.639  13.5330  0.00  0.00     0.000 C
ATOM     84  O5  IDS B   5     -19.357  52.730  13.6210  0.00  0.00     0.000 O
ATOM     85   O  IDS B   5     -17.391  53.810  10.9930  0.00  0.00     0.000 O
ATOM     87  HD  IDS B   5     -17.267  53.158  11.5500  0.00  0.00     0.000 HD
BRANCH 80 87
ATOM     87   O  IDS B   5     -20.304  51.810  11.0590  0.00  0.00     0.000 O
ATOM     88  @S  IDS B   5     -21.512  51.618  10.1390  0.00  0.00     0.000 S
ATOM     89   O  IDS B   5     -21.088  52.088   8.8710  0.00  0.00     0.000 OA
ATOM     90   O  IDS B   5     -21.800  50.227  10.1800  0.00  0.00     0.000 OA
ATOM     91   O  IDS B   5     -22.561  52.396  10.7000  0.00  0.00     0.000 OA
ENDBRANCH 80 87
BRANCH 83 92
ATOM     92 @CA  IDS B   5     -17.311  52.113  14.8140  0.00  0.00     0.000 C
ATOM     93   O  IDS B   5     -16.087  51.997  14.9140  0.00  0.00     0.000 OA
ATOM     94   O  IDS B   5     -18.015  51.787  15.7780  0.00  0.00     0.000 OA
ENDBRANCH 83 92
BRANCH 79 95
ATOM     95  O4  SGN B   6     -19.569  54.848  12.6780  0.00  0.00     0.000 O
BRANCH 95 99
ATOM     96  C1  SGN B   6     -22.170  55.764  15.7770  0.00  0.00     0.000 C
ATOM     97  C2  SGN B   6     -22.667  56.087  14.3730  0.00  0.00     0.000 C
ATOM     98  C3  SGN B   6     -21.867  55.204  13.4140  0.00  0.00     0.000 C
ATOM     99  C4  SGN B   6     -20.379  55.645  13.5230  0.00  0.00     0.000 C
ATOM    100  C5  SGN B   6     -19.952  55.407  14.9990  0.00  0.00     0.000 C
ATOM    101  O5  SGN B   6     -20.803  56.103  15.9050  0.00  0.00     0.000 O
BRANCH 97 104
ATOM    102   N  SGN B   6     -23.884  56.285  15.1650  0.00  0.00     0.000 N
ATOM    104  HD  SGN B   6     -24.557  55.918  14.7620  0.00  0.00     0.000 HD
ATOM    104 @NS  SGN B   6     -25.093  57.205  14.4990  0.00  0.00     0.000 S
ATOM    105   O  SGN B   6     -24.662  57.607  13.1780  0.00  0.00     0.000 OA
ATOM    106   O  SGN B   6     -26.274  56.374  14.4580  0.00  0.00     0.000 OA
ATOM    107   O  SGN B   6     -25.252  58.348  15.3710  0.00  0.00     0.000 OA
ENDBRANCH 97 104
BRANCH 100 108
ATOM    108   C  SGN B   6     -18.529  55.817  15.3600  0.00  0.00     0.000 C
ATOM    109   O  SGN B   6     -18.569  56.858  16.3040  0.00  0.00     0.000 O
ATOM    110  @S  SGN B   6     -17.321  57.575  16.9360  0.00  0.00     0.000 S
ATOM    111   O  SGN B   6     -16.372  57.739  15.8610  0.00  0.00     0.000 OA
ATOM    112   O  SGN B   6     -17.795  58.851  17.4470  0.00  0.00     0.000 OA
ATOM    113   O  SGN B   6     -16.843  56.688  17.9720  0.00  0.00     0.000 OA
ENDBRANCH 100 108
ENDBRANCH 95 99
ENDBRANCH 79 95
ENDBRANCH 78 82
ENDBRANCH 58 78
ENDBRANCH 57 61
ENDBRANCH 41 57
ENDBRANCH 40 44
ENDBRANCH 20 40
ENDBRANCH 19 23
ENDBRANCH 1 19
TORSDOF 22
ENDMDL
MODEL 88
REMARK VINA RESULT:       4.7      3.851      9.379
ROOT
ATOM      1  C1  IDS B   1     -24.682  60.926   9.4850  0.00  0.00     0.000 C
ATOM      2  C2  IDS B   1     -25.981  61.434  10.0540  0.00  0.00     0.000 C
ATOM      3  C3  IDS B   1     -25.896  62.113  11.4420  0.00  0.00     0.000 C
ATOM      4  C4  IDS B   1     -24.503  62.786  11.7330  0.00  0.00     0.000 C
ATOM      5  C5  IDS B   1     -23.338  62.095  10.9830  0.00  0.00     0.000 C
ATOM      6  O5  IDS B   1     -23.677  61.907   9.6360  0.00  0.00     0.000 O
ATOM      7   O  IDS B   1     -26.197  61.119  12.4170  0.00  0.00     0.000 O
ATOM      9  HD  IDS B   1     -25.722  61.746  12.7800  0.00  0.00     0.000 HD
ATOM      9   O  IDS B   1     -24.572  64.123  11.2910  0.00  0.00     0.000 O
ATOM     11  HD  IDS B   1     -24.096  64.749  11.6540  0.00  0.00     0.000 HD
ENDROOT
BRANCH 2 11
ATOM     11   O  IDS B   1     -26.532  62.370   9.1940  0.00  0.00     0.000 O
ATOM     12  @S  IDS B   1     -27.604  62.054   8.1320  0.00  0.00     0.000 S
ATOM     13   O  IDS B   1     -27.387  60.653   7.8280  0.00  0.00     0.000 OA
ATOM     14   O  IDS B   1     -28.892  62.296   8.7560  0.00  0.00     0.000 OA
ATOM     15   O  IDS B   1     -27.338  62.948   7.0230  0.00  0.00     0.000 OA
ENDBRANCH 2 11
BRANCH 5 16
ATOM     16 @CA  IDS B   1     -21.971  62.765  11.0820  0.00  0.00     0.000 C
ATOM     17   O  IDS B   1     -21.368  62.846  12.1490  0.00  0.00     0.000 OA
ATOM     18   O  IDS B   1     -21.432  63.232  10.0810  0.00  0.00     0.000 OA
ENDBRANCH 5 16
BRANCH 1 19
ATOM     19  O4  SGN B   2     -24.338  59.741  10.1730  0.00  0.00     0.000 O
BRANCH 19 23
ATOM     20  C1  SGN B   2     -23.015  56.068   8.9420  0.00  0.00     0.000 C
ATOM     21  C2  SGN B   2     -22.199  57.291   8.5850  0.00  0.00     0.000 C
ATOM     22  C3  SGN B   2     -22.483  58.376   9.5600  0.00  0.00     0.000 C
ATOM     23  C4  SGN B   2     -23.948  58.691   9.3640  0.00  0.00     0.000 C
ATOM     24  C5  SGN B   2     -24.674  57.471   9.8150  0.00  0.00     0.000 C
ATOM     25  O5  SGN B   2     -24.390  56.425   8.9580  0.00  0.00     0.000 O
ATOM     26   O  SGN B   2     -21.707  59.482   9.2600  0.00  0.00     0.000 O
ATOM     28  HD  SGN B   2     -21.387  60.245   9.0040  0.00  0.00     0.000 HD
BRANCH 21 30
ATOM     28   N  SGN B   2     -20.781  57.162   8.4170  0.00  0.00     0.000 N
ATOM     30  HD  SGN B   2     -20.639  57.879   7.9520  0.00  0.00     0.000 HD
ATOM     30 @NS  SGN B   2     -20.267  56.262   7.1660  0.00  0.00     0.000 S
ATOM     31   O  SGN B   2     -21.385  55.888   6.3660  0.00  0.00     0.000 OA
ATOM     32   O  SGN B   2     -19.402  57.124   6.4710  0.00  0.00     0.000 OA
ATOM     33   O  SGN B   2     -19.639  55.126   7.7270  0.00  0.00     0.000 OA
ENDBRANCH 21 30
BRANCH 24 34
ATOM     34   C  SGN B   2     -26.153  57.593   9.8660  0.00  0.00     0.000 C
ATOM     35   O  SGN B   2     -26.515  57.723  11.1950  0.00  0.00     0.000 O
ATOM     36  @S  SGN B   2     -27.923  58.086  11.6500  0.00  0.00     0.000 S
ATOM     37   O  SGN B   2     -28.580  56.807  11.8330  0.00  0.00     0.000 OA
ATOM     38   O  SGN B   2     -27.782  58.844  12.8720  0.00  0.00     0.000 OA
ATOM     39   O  SGN B   2     -28.480  58.885  10.5670  0.00  0.00     0.000 OA
ENDBRANCH 24 34
BRANCH 20 40
ATOM     40  O4  IDS B   3     -22.610  55.553  10.1730  0.00  0.00     0.000 O
BRANCH 40 44
ATOM     41  C1  IDS B   3     -21.696  53.429  12.8110  0.00  0.00     0.000 C
ATOM     42  C2  IDS B   3     -20.738  53.677  11.6470  0.00  0.00     0.000 C
ATOM     43  C3  IDS B   3     -21.358  53.574  10.2400  0.00  0.00     0.000 C
ATOM     44  C4  IDS B   3     -22.750  54.172  10.2150  0.00  0.00     0.000 C
ATOM     45  C5  IDS B   3     -23.577  53.763  11.4440  0.00  0.00     0.000 C
ATOM     46  O5  IDS B   3     -22.920  54.120  12.6050  0.00  0.00     0.000 O
ATOM     47   O  IDS B   3     -21.454  52.214   9.8700  0.00  0.00     0.000 O
ATOM     49  HD  IDS B   3     -21.388  53.067   9.7370  0.00  0.00     0.000 HD
BRANCH 42 49
ATOM     49   O  IDS B   3     -20.212  54.967  11.7720  0.00  0.00     0.000 O
ATOM     50   O  IDS B   3     -18.041  54.181  11.3060  0.00  0.00     0.000 OA
ATOM     51   O  IDS B   3     -18.726  56.265  10.4170  0.00  0.00     0.000 OA
ATOM     52   O  IDS B   3     -18.388  56.014  12.7400  0.00  0.00     0.000 OA
ATOM     53  @S  IDS B   3     -18.756  55.382  11.5400  0.00  0.00     0.000 S
ENDBRANCH 42 49
BRANCH 45 54
ATOM     54 @CA  IDS B   3     -25.007  54.298  11.4780  0.00  0.00     0.000 C
ATOM     55   O  IDS B   3     -25.395  55.004  12.3690  0.00  0.00     0.000 OA
ATOM     56   O  IDS B   3     -25.778  54.053  10.6100  0.00  0.00     0.000 OA
ENDBRANCH 45 54
BRANCH 41 57
ATOM     57  O4  SGN B   4     -21.897  52.063  12.9660  0.00  0.00     0.000 O
BRANCH 57 61
ATOM     58  C1  SGN B   4     -20.292  52.013  16.7630  0.00  0.00     0.000 C
ATOM     59  C2  SGN B   4     -19.909  50.843  15.8730  0.00  0.00     0.000 C
ATOM     60  C3  SGN B   4     -20.230  51.172  14.4180  0.00  0.00     0.000 C
ATOM     61  C4  SGN B   4     -21.703  51.564  14.2530  0.00  0.00     0.000 C
ATOM     62  C5  SGN B   4     -22.005  52.679  15.2510  0.00  0.00     0.000 C
ATOM     63  O5  SGN B   4     -21.668  52.293  16.5700  0.00  0.00     0.000 O
ATOM     64   O  SGN B   4     -19.978  50.029  13.6270  0.00  0.00     0.000 O
ATOM     66  HD  SGN B   4     -20.653  49.707  13.1900  0.00  0.00     0.000 HD
BRANCH 59 68
ATOM     66   N  SGN B   4     -19.430  49.751  16.6960  0.00  0.00     0.000 N
ATOM     68  HD  SGN B   4     -20.005  50.395  16.7620  0.00  0.00     0.000 HD
ATOM     68 @NS  SGN B   4     -17.954  49.842  17.4040  0.00  0.00     0.000 S
ATOM     69   O  SGN B   4     -17.056  50.486  16.4900  0.00  0.00     0.000 OA
ATOM     70   O  SGN B   4     -18.130  50.620  18.5960  0.00  0.00     0.000 OA
ATOM     71   O  SGN B   4     -17.599  48.480  17.6610  0.00  0.00     0.000 OA
ENDBRANCH 59 68
BRANCH 62 72
ATOM     72   C  SGN B   4     -23.475  53.070  15.2720  0.00  0.00     0.000 C
ATOM     73   O  SGN B   4     -23.582  54.068  16.2430  0.00  0.00     0.000 O
ATOM     74  @S  SGN B   4     -24.567  55.250  16.2650  0.00  0.00     0.000 S
ATOM     75   O  SGN B   4     -25.876  54.711  16.2350  0.00  0.00     0.000 OA
ATOM     76   O  SGN B   4     -24.285  55.919  17.4990  0.00  0.00     0.000 OA
ATOM     77   O  SGN B   4     -24.290  56.009  15.0920  0.00  0.00     0.000 OA
ENDBRANCH 62 72
BRANCH 58 78
ATOM     78  O4  IDS B   5     -19.473  53.129  16.4790  0.00  0.00     0.000 O
BRANCH 78 82
ATOM     79  C1  IDS B   5     -17.042  55.594  16.3600  0.00  0.00     0.000 C
ATOM     80  C2  IDS B   5     -16.640  54.182  16.6600  0.00  0.00     0.000 C
ATOM     81  C3  IDS B   5     -17.468  53.527  17.7620  0.00  0.00     0.000 C
ATOM     82  C4  IDS B   5     -18.952  53.789  17.6130  0.00  0.00     0.000 C
ATOM     83  C5  IDS B   5     -19.133  55.263  17.4370  0.00  0.00     0.000 C
ATOM     84  O5  IDS B   5     -18.452  55.688  16.2720  0.00  0.00     0.000 O
ATOM     85   O  IDS B   5     -17.059  54.076  18.9920  0.00  0.00     0.000 O
ATOM     87  HD  IDS B   5     -17.859  54.025  18.6630  0.00  0.00     0.000 HD
BRANCH 80 87
ATOM     87   O  IDS B   5     -16.820  53.432  15.5250  0.00  0.00     0.000 O
ATOM     88  @S  IDS B   5     -15.779  53.134  14.4430  0.00  0.00     0.000 S
ATOM     89   O  IDS B   5     -14.664  52.604  15.1410  0.00  0.00     0.000 OA
ATOM     90   O  IDS B   5     -16.406  52.214  13.5600  0.00  0.00     0.000 OA
ATOM     91   O  IDS B   5     -15.503  54.376  13.8100  0.00  0.00     0.000 OA
ENDBRANCH 80 87
BRANCH 83 92
ATOM     92 @CA  IDS B   5     -20.591  55.709  17.4600  0.00  0.00     0.000 C
ATOM     93   O  IDS B   5     -21.140  56.137  16.4420  0.00  0.00     0.000 OA
ATOM     94   O  IDS B   5     -21.249  55.655  18.5060  0.00  0.00     0.000 OA
ENDBRANCH 83 92
BRANCH 79 95
ATOM     95  O4  SGN B   6     -16.517  56.441  17.3270  0.00  0.00     0.000 O
BRANCH 95 99
ATOM     96  C1  SGN B   6     -15.595  60.481  17.5250  0.00  0.00     0.000 C
ATOM     97  C2  SGN B   6     -16.909  60.131  16.8360  0.00  0.00     0.000 C
ATOM     98  C3  SGN B   6     -17.313  58.747  17.3460  0.00  0.00     0.000 C
ATOM     99  C4  SGN B   6     -16.223  57.747  16.8650  0.00  0.00     0.000 C
ATOM    100  C5  SGN B   6     -14.881  58.214  17.5000  0.00  0.00     0.000 C
ATOM    101  O5  SGN B   6     -14.584  59.564  17.1550  0.00  0.00     0.000 O
BRANCH 97 104
ATOM    102   N  SGN B   6     -17.183  61.550  17.0790  0.00  0.00     0.000 N
ATOM    104  HD  SGN B   6     -18.034  61.666  17.1930  0.00  0.00     0.000 HD
ATOM    104 @NS  SGN B   6     -18.100  62.358  15.9560  0.00  0.00     0.000 S
ATOM    105   O  SGN B   6     -18.479  61.409  14.9330  0.00  0.00     0.000 OA
ATOM    106   O  SGN B   6     -19.244  62.890  16.6590  0.00  0.00     0.000 OA
ATOM    107   O  SGN B   6     -17.249  63.398  15.4200  0.00  0.00     0.000 OA
ENDBRANCH 97 104
BRANCH 100 108
ATOM    108   C  SGN B   6     -13.645  57.404  17.1260  0.00  0.00     0.000 C
ATOM    109   O  SGN B   6     -13.380  56.464  18.1380  0.00  0.00     0.000 O
ATOM    110  @S  SGN B   6     -12.192  55.435  18.1480  0.00  0.00     0.000 S
ATOM    111   O  SGN B   6     -11.046  56.148  17.6380  0.00  0.00     0.000 OA
ATOM    112   O  SGN B   6     -12.013  55.029  19.5330  0.00  0.00     0.000 OA
ATOM    113   O  SGN B   6     -12.606  54.351  17.2860  0.00  0.00     0.000 OA
ENDBRANCH 100 108
ENDBRANCH 95 99
ENDBRANCH 79 95
ENDBRANCH 78 82
ENDBRANCH 58 78
ENDBRANCH 57 61
ENDBRANCH 41 57
ENDBRANCH 40 44
ENDBRANCH 20 40
ENDBRANCH 19 23
ENDBRANCH 1 19
TORSDOF 22
ENDMDL
MODEL 89
REMARK VINA RESULT:       4.7      2.446      8.313
ROOT
ATOM      1  C1  IDS B   1     -26.545  53.661  12.1740  0.00  0.00     0.000 C
ATOM      2  C2  IDS B   1     -26.137  55.107  12.2790  0.00  0.00     0.000 C
ATOM      3  C3  IDS B   1     -25.384  55.692  11.0600  0.00  0.00     0.000 C
ATOM      4  C4  IDS B   1     -25.749  54.995   9.6970  0.00  0.00     0.000 C
ATOM      5  C5  IDS B   1     -26.183  53.519   9.8780  0.00  0.00     0.000 C
ATOM      6  O5  IDS B   1     -27.127  53.418  10.9100  0.00  0.00     0.000 O
ATOM      7   O  IDS B   1     -23.991  55.585  11.3330  0.00  0.00     0.000 O
ATOM      9  HD  IDS B   1     -24.116  55.619  10.4760  0.00  0.00     0.000 HD
ATOM      9   O  IDS B   1     -26.831  55.699   9.1300  0.00  0.00     0.000 O
ATOM     11  HD  IDS B   1     -26.957  55.733   8.2740  0.00  0.00     0.000 HD
ENDROOT
BRANCH 2 11
ATOM     11   O  IDS B   1     -27.261  55.896  12.4610  0.00  0.00     0.000 O
ATOM     12  @S  IDS B   1     -27.257  57.437  12.4420  0.00  0.00     0.000 S
ATOM     13   O  IDS B   1     -25.909  57.785  12.8430  0.00  0.00     0.000 OA
ATOM     14   O  IDS B   1     -27.554  57.837  11.0780  0.00  0.00     0.000 OA
ATOM     15   O  IDS B   1     -28.280  57.847  13.3840  0.00  0.00     0.000 OA
ENDBRANCH 2 11
BRANCH 5 16
ATOM     16 @CA  IDS B   1     -26.699  52.803   8.6340  0.00  0.00     0.000 C
ATOM     17   O  IDS B   1     -26.240  51.721   8.2760  0.00  0.00     0.000 OA
ATOM     18   O  IDS B   1     -27.606  53.292   7.9640  0.00  0.00     0.000 OA
ENDBRANCH 5 16
BRANCH 1 19
ATOM     19  O4  SGN B   2     -25.390  52.867  12.3570  0.00  0.00     0.000 O
BRANCH 19 23
ATOM     20  C1  SGN B   2     -24.486  49.786  14.8950  0.00  0.00     0.000 C
ATOM     21  C2  SGN B   2     -25.718  49.672  14.0240  0.00  0.00     0.000 C
ATOM     22  C3  SGN B   2     -25.558  50.537  12.8270  0.00  0.00     0.000 C
ATOM     23  C4  SGN B   2     -25.477  51.942  13.3790  0.00  0.00     0.000 C
ATOM     24  C5  SGN B   2     -24.202  51.987  14.1480  0.00  0.00     0.000 C
ATOM     25  O5  SGN B   2     -24.297  51.150  15.2440  0.00  0.00     0.000 O
ATOM     26   O  SGN B   2     -26.666  50.403  12.0090  0.00  0.00     0.000 O
ATOM     28  HD  SGN B   2     -27.406  50.492  11.5670  0.00  0.00     0.000 HD
BRANCH 21 30
ATOM     28   N  SGN B   2     -26.081  48.839  15.1330  0.00  0.00     0.000 N
ATOM     30  HD  SGN B   2     -25.312  48.465  15.2730  0.00  0.00     0.000 HD
ATOM     30 @NS  SGN B   2     -26.713  47.383  14.7850  0.00  0.00     0.000 S
ATOM     31   O  SGN B   2     -26.635  47.162  13.3800  0.00  0.00     0.000 OA
ATOM     32   O  SGN B   2     -25.893  46.489  15.4930  0.00  0.00     0.000 OA
ATOM     33   O  SGN B   2     -28.057  47.420  15.2220  0.00  0.00     0.000 OA
ENDBRANCH 21 30
BRANCH 24 34
ATOM     34   C  SGN B   2     -23.817  53.324  14.6630  0.00  0.00     0.000 C
ATOM     35   O  SGN B   2     -24.863  53.789  15.4400  0.00  0.00     0.000 O
ATOM     36  @S  SGN B   2     -24.769  55.032  16.3180  0.00  0.00     0.000 S
ATOM     37   O  SGN B   2     -25.226  56.109  15.4620  0.00  0.00     0.000 OA
ATOM     38   O  SGN B   2     -25.622  54.798  17.4600  0.00  0.00     0.000 OA
ATOM     39   O  SGN B   2     -23.365  55.131  16.6910  0.00  0.00     0.000 OA
ENDBRANCH 24 34
BRANCH 20 40
ATOM     40  O4  IDS B   3     -23.371  49.273  14.2340  0.00  0.00     0.000 O
BRANCH 40 44
ATOM     41  C1  IDS B   3     -20.418  47.570  13.4040  0.00  0.00     0.000 C
ATOM     42  C2  IDS B   3     -21.762  46.845  13.3890  0.00  0.00     0.000 C
ATOM     43  C3  IDS B   3     -22.658  47.074  14.6220  0.00  0.00     0.000 C
ATOM     44  C4  IDS B   3     -22.581  48.514  15.0880  0.00  0.00     0.000 C
ATOM     45  C5  IDS B   3     -21.139  49.047  15.0830  0.00  0.00     0.000 C
ATOM     46  O5  IDS B   3     -20.584  48.916  13.8250  0.00  0.00     0.000 O
ATOM     47   O  IDS B   3     -22.222  46.243  15.6780  0.00  0.00     0.000 O
ATOM     49  HD  IDS B   3     -22.791  46.714  15.2240  0.00  0.00     0.000 HD
BRANCH 42 49
ATOM     49   O  IDS B   3     -22.485  47.271  12.2700  0.00  0.00     0.000 O
ATOM     50   O  IDS B   3     -21.623  45.501  10.9760  0.00  0.00     0.000 OA
ATOM     51   O  IDS B   3     -23.887  46.134  10.6980  0.00  0.00     0.000 OA
ATOM     52   O  IDS B   3     -22.153  47.574   9.9980  0.00  0.00     0.000 OA
ATOM     53  @S  IDS B   3     -22.544  46.576  10.9070  0.00  0.00     0.000 S
ENDBRANCH 42 49
BRANCH 45 54
ATOM     54 @CA  IDS B   3     -20.971  50.483  15.5730  0.00  0.00     0.000 C
ATOM     55   O  IDS B   3     -20.466  51.329  14.8850  0.00  0.00     0.000 OA
ATOM     56   O  IDS B   3     -21.355  50.819  16.6440  0.00  0.00     0.000 OA
ENDBRANCH 45 54
BRANCH 41 57
ATOM     57  O4  SGN B   4     -19.527  46.883  14.2180  0.00  0.00     0.000 O
BRANCH 57 61
ATOM     58  C1  SGN B   4     -16.028  48.373  12.6270  0.00  0.00     0.000 C
ATOM     59  C2  SGN B   4     -16.759  47.356  11.7670  0.00  0.00     0.000 C
ATOM     60  C3  SGN B   4     -18.190  47.188  12.2690  0.00  0.00     0.000 C
ATOM     61  C4  SGN B   4     -18.214  46.811  13.7540  0.00  0.00     0.000 C
ATOM     62  C5  SGN B   4     -17.380  47.840  14.5120  0.00  0.00     0.000 C
ATOM     63  O5  SGN B   4     -16.074  47.938  13.9760  0.00  0.00     0.000 O
ATOM     64   O  SGN B   4     -18.811  46.154  11.5330  0.00  0.00     0.000 O
ATOM     66  HD  SGN B   4     -19.094  45.474  11.9880  0.00  0.00     0.000 HD
BRANCH 59 68
ATOM     66   N  SGN B   4     -15.871  46.796  10.7690  0.00  0.00     0.000 N
ATOM     68  HD  SGN B   4     -15.816  47.078  11.5860  0.00  0.00     0.000 HD
ATOM     68 @NS  SGN B   4     -15.367  47.716   9.5090  0.00  0.00     0.000 S
ATOM     69   O  SGN B   4     -16.457  48.551   9.0980  0.00  0.00     0.000 OA
ATOM     70   O  SGN B   4     -14.269  48.498  10.0000  0.00  0.00     0.000 OA
ATOM     71   O  SGN B   4     -14.987  46.768   8.5070  0.00  0.00     0.000 OA
ENDBRANCH 59 68
BRANCH 62 72
ATOM     72   C  SGN B   4     -17.222  47.503  15.9870  0.00  0.00     0.000 C
ATOM     73   O  SGN B   4     -17.783  48.578  16.6790  0.00  0.00     0.000 O
ATOM     74  @S  SGN B   4     -18.494  48.544  18.0430  0.00  0.00     0.000 S
ATOM     75   O  SGN B   4     -17.577  48.019  18.9850  0.00  0.00     0.000 OA
ATOM     76   O  SGN B   4     -18.816  49.915  18.3050  0.00  0.00     0.000 OA
ATOM     77   O  SGN B   4     -19.617  47.684  17.8750  0.00  0.00     0.000 OA
ENDBRANCH 62 72
BRANCH 58 78
ATOM     78  O4  IDS B   5     -16.599  49.655  12.4570  0.00  0.00     0.000 O
BRANCH 78 82
ATOM     79  C1  IDS B   5     -17.427  53.015  12.3190  0.00  0.00     0.000 C
ATOM     80  C2  IDS B   5     -17.289  52.242  11.0430  0.00  0.00     0.000 C
ATOM     81  C3  IDS B   5     -15.995  51.438  10.9470  0.00  0.00     0.000 C
ATOM     82  C4  IDS B   5     -15.672  50.694  12.2270  0.00  0.00     0.000 C
ATOM     83  C5  IDS B   5     -15.759  51.675  13.3520  0.00  0.00     0.000 C
ATOM     84  O5  IDS B   5     -17.071  52.200  13.4220  0.00  0.00     0.000 O
ATOM     85   O  IDS B   5     -14.944  52.342  10.7030  0.00  0.00     0.000 O
ATOM     87  HD  IDS B   5     -15.009  51.747  11.3290  0.00  0.00     0.000 HD
BRANCH 80 87
ATOM     87   O  IDS B   5     -18.324  51.344  10.9710  0.00  0.00     0.000 O
ATOM     88  @S  IDS B   5     -19.749  51.618  10.4840  0.00  0.00     0.000 S
ATOM     89   O  IDS B   5     -19.594  52.208   9.2040  0.00  0.00     0.000 OA
ATOM     90   O  IDS B   5     -20.394  50.352  10.4700  0.00  0.00     0.000 OA
ATOM     91   O  IDS B   5     -20.327  52.500  11.4380  0.00  0.00     0.000 OA
ENDBRANCH 80 87
BRANCH 83 92
ATOM     92 @CA  IDS B   5     -15.278  51.121  14.6880  0.00  0.00     0.000 C
ATOM     93   O  IDS B   5     -15.988  51.183  15.6940  0.00  0.00     0.000 OA
ATOM     94   O  IDS B   5     -14.160  50.600  14.7870  0.00  0.00     0.000 OA
ENDBRANCH 83 92
BRANCH 79 95
ATOM     95  O4  SGN B   6     -16.657  54.169  12.2480  0.00  0.00     0.000 O
BRANCH 95 99
ATOM     96  C1  SGN B   6     -17.325  58.158  13.1710  0.00  0.00     0.000 C
ATOM     97  C2  SGN B   6     -16.784  57.293  14.3040  0.00  0.00     0.000 C
ATOM     98  C3  SGN B   6     -16.107  56.089  13.6490  0.00  0.00     0.000 C
ATOM     99  C4  SGN B   6     -17.217  55.290  12.9070  0.00  0.00     0.000 C
ATOM    100  C5  SGN B   6     -17.818  56.251  11.8410  0.00  0.00     0.000 C
ATOM    101  O5  SGN B   6     -18.305  57.450  12.4360  0.00  0.00     0.000 O
BRANCH 97 104
ATOM    102   N  SGN B   6     -16.000  58.303  15.0220  0.00  0.00     0.000 N
ATOM    104  HD  SGN B   6     -15.664  57.955  15.7390  0.00  0.00     0.000 HD
ATOM    104 @NS  SGN B   6     -16.528  58.759  16.5270  0.00  0.00     0.000 S
ATOM    105   O  SGN B   6     -17.708  57.979  16.8330  0.00  0.00     0.000 OA
ATOM    106   O  SGN B   6     -15.445  58.494  17.4460  0.00  0.00     0.000 OA
ATOM    107   O  SGN B   6     -16.840  60.168  16.4320  0.00  0.00     0.000 OA
ENDBRANCH 97 104
BRANCH 100 108
ATOM    108   C  SGN B   6     -18.972  55.695  11.0130  0.00  0.00     0.000 C
ATOM    109   O  SGN B   6     -19.316  56.621  10.0130  0.00  0.00     0.000 O
ATOM    110  @S  SGN B   6     -20.459  56.442   8.9480  0.00  0.00     0.000 S
ATOM    111   O  SGN B   6     -21.564  55.837   9.6510  0.00  0.00     0.000 OA
ATOM    112   O  SGN B   6     -20.781  57.774   8.4630  0.00  0.00     0.000 OA
ATOM    113   O  SGN B   6     -19.908  55.582   7.9250  0.00  0.00     0.000 OA
ENDBRANCH 100 108
ENDBRANCH 95 99
ENDBRANCH 79 95
ENDBRANCH 78 82
ENDBRANCH 58 78
ENDBRANCH 57 61
ENDBRANCH 41 57
ENDBRANCH 40 44
ENDBRANCH 20 40
ENDBRANCH 19 23
ENDBRANCH 1 19
TORSDOF 22
ENDMDL
MODEL 90
REMARK VINA RESULT:       4.7      2.666      8.179
ROOT
ATOM      1  C1  IDS B   1     -23.438  59.207  10.3530  0.00  0.00     0.000 C
ATOM      2  C2  IDS B   1     -22.899  59.315   8.9510  0.00  0.00     0.000 C
ATOM      3  C3  IDS B   1     -23.917  59.081   7.8100  0.00  0.00     0.000 C
ATOM      4  C4  IDS B   1     -25.397  59.453   8.1970  0.00  0.00     0.000 C
ATOM      5  C5  IDS B   1     -25.675  59.300   9.7120  0.00  0.00     0.000 C
ATOM      6  O5  IDS B   1     -24.656  59.916  10.4530  0.00  0.00     0.000 O
ATOM      7   O  IDS B   1     -23.817  57.713   7.4280  0.00  0.00     0.000 O
ATOM      9  HD  IDS B   1     -24.600  58.016   7.2160  0.00  0.00     0.000 HD
ATOM      9   O  IDS B   1     -25.604  60.804   7.8520  0.00  0.00     0.000 O
ATOM     11  HD  IDS B   1     -26.387  61.107   7.6400  0.00  0.00     0.000 HD
ENDROOT
BRANCH 2 11
ATOM     11   O  IDS B   1     -22.370  60.581   8.7510  0.00  0.00     0.000 O
ATOM     12  @S  IDS B   1     -21.356  60.938   7.6470  0.00  0.00     0.000 S
ATOM     13   O  IDS B   1     -20.670  59.687   7.3890  0.00  0.00     0.000 OA
ATOM     14   O  IDS B   1     -22.127  61.396   6.5050  0.00  0.00     0.000 OA
ATOM     15   O  IDS B   1     -20.510  61.973   8.2070  0.00  0.00     0.000 OA
ENDBRANCH 2 11
BRANCH 5 16
ATOM     16 @CA  IDS B   1     -27.035  59.779  10.2090  0.00  0.00     0.000 C
ATOM     17   O  IDS B   1     -27.299  60.975  10.3100  0.00  0.00     0.000 OA
ATOM     18   O  IDS B   1     -27.910  58.970  10.5080  0.00  0.00     0.000 OA
ENDBRANCH 5 16
BRANCH 1 19
ATOM     19  O4  SGN B   2     -23.627  57.838  10.6440  0.00  0.00     0.000 O
BRANCH 19 23
ATOM     20  C1  SGN B   2     -22.974  55.570  13.9890  0.00  0.00     0.000 C
ATOM     21  C2  SGN B   2     -23.860  56.792  14.1010  0.00  0.00     0.000 C
ATOM     22  C3  SGN B   2     -24.431  57.112  12.7660  0.00  0.00     0.000 C
ATOM     23  C4  SGN B   2     -23.232  57.453  11.9110  0.00  0.00     0.000 C
ATOM     24  C5  SGN B   2     -22.466  56.182  11.7870  0.00  0.00     0.000 C
ATOM     25  O5  SGN B   2     -21.964  55.825  13.0230  0.00  0.00     0.000 O
ATOM     26   O  SGN B   2     -25.274  58.204  12.8750  0.00  0.00     0.000 O
ATOM     28  HD  SGN B   2     -25.655  58.981  12.8590  0.00  0.00     0.000 HD
BRANCH 21 30
ATOM     28   N  SGN B   2     -23.444  56.427  15.4230  0.00  0.00     0.000 N
ATOM     30  HD  SGN B   2     -23.745  55.615  15.4350  0.00  0.00     0.000 HD
ATOM     30 @NS  SGN B   2     -24.449  56.806  16.6430  0.00  0.00     0.000 S
ATOM     31   O  SGN B   2     -25.666  57.316  16.1050  0.00  0.00     0.000 OA
ATOM     32   O  SGN B   2     -24.649  55.580  17.2990  0.00  0.00     0.000 OA
ATOM     33   O  SGN B   2     -23.783  57.785  17.4150  0.00  0.00     0.000 OA
ENDBRANCH 21 30
BRANCH 24 34
ATOM     34   C  SGN B   2     -21.314  56.223  10.8520  0.00  0.00     0.000 C
ATOM     35   O  SGN B   2     -21.731  55.678   9.6510  0.00  0.00     0.000 O
ATOM     36  @S  SGN B   2     -20.906  55.734   8.3700  0.00  0.00     0.000 S
ATOM     37   O  SGN B   2     -20.129  54.511   8.3930  0.00  0.00     0.000 OA
ATOM     38   O  SGN B   2     -21.844  55.804   7.2740  0.00  0.00     0.000 OA
ATOM     39   O  SGN B   2     -20.103  56.944   8.4870  0.00  0.00     0.000 OA
ENDBRANCH 24 34
BRANCH 20 40
ATOM     40  O4  IDS B   3     -23.729  54.449  13.6480  0.00  0.00     0.000 O
BRANCH 40 44
ATOM     41  C1  IDS B   3     -24.606  51.053  13.6070  0.00  0.00     0.000 C
ATOM     42  C2  IDS B   3     -25.683  52.130  13.7100  0.00  0.00     0.000 C
ATOM     43  C3  IDS B   3     -25.416  53.244  14.7410  0.00  0.00     0.000 C
ATOM     44  C4  IDS B   3     -23.952  53.634  14.7510  0.00  0.00     0.000 C
ATOM     45  C5  IDS B   3     -23.027  52.408  14.6960  0.00  0.00     0.000 C
ATOM     46  O5  IDS B   3     -23.313  51.640  13.5840  0.00  0.00     0.000 O
ATOM     47   O  IDS B   3     -25.760  52.780  16.0300  0.00  0.00     0.000 O
ATOM     49  HD  IDS B   3     -25.625  53.372  15.4120  0.00  0.00     0.000 HD
BRANCH 42 49
ATOM     49   O  IDS B   3     -25.815  52.748  12.4610  0.00  0.00     0.000 O
ATOM     50   O  IDS B   3     -28.122  53.069  12.8060  0.00  0.00     0.000 OA
ATOM     51   O  IDS B   3     -26.870  54.771  11.7400  0.00  0.00     0.000 OA
ATOM     52   O  IDS B   3     -27.254  52.714  10.6480  0.00  0.00     0.000 OA
ATOM     53  @S  IDS B   3     -27.090  53.366  11.8820  0.00  0.00     0.000 S
ENDBRANCH 42 49
BRANCH 45 54
ATOM     54 @CA  IDS B   3     -21.531  52.715  14.7370  0.00  0.00     0.000 C
ATOM     55   O  IDS B   3     -20.993  53.096  15.7410  0.00  0.00     0.000 OA
ATOM     56   O  IDS B   3     -20.845  52.567  13.7810  0.00  0.00     0.000 OA
ENDBRANCH 45 54
BRANCH 41 57
ATOM     57  O4  SGN B   4     -24.744  50.155  14.6590  0.00  0.00     0.000 O
BRANCH 57 61
ATOM     58  C1  SGN B   4     -22.348  47.177  13.1130  0.00  0.00     0.000 C
ATOM     59  C2  SGN B   4     -23.733  47.290  12.4990  0.00  0.00     0.000 C
ATOM     60  C3  SGN B   4     -24.352  48.636  12.8640  0.00  0.00     0.000 C
ATOM     61  C4  SGN B   4     -24.377  48.838  14.3840  0.00  0.00     0.000 C
ATOM     62  C5  SGN B   4     -22.962  48.614  14.9090  0.00  0.00     0.000 C
ATOM     63  O5  SGN B   4     -22.462  47.349  14.5160  0.00  0.00     0.000 O
ATOM     64   O  SGN B   4     -25.681  48.670  12.3850  0.00  0.00     0.000 O
ATOM     66  HD  SGN B   4     -26.302  48.777  12.9790  0.00  0.00     0.000 HD
BRANCH 59 68
ATOM     66   N  SGN B   4     -23.605  47.152  11.0630  0.00  0.00     0.000 N
ATOM     68  HD  SGN B   4     -24.240  47.281  11.6370  0.00  0.00     0.000 HD
ATOM     68 @NS  SGN B   4     -23.336  45.675  10.4010  0.00  0.00     0.000 S
ATOM     69   O  SGN B   4     -22.450  44.951  11.2630  0.00  0.00     0.000 OA
ATOM     70   O  SGN B   4     -24.618  45.037  10.3160  0.00  0.00     0.000 OA
ATOM     71   O  SGN B   4     -22.757  45.959   9.1230  0.00  0.00     0.000 OA
ENDBRANCH 59 68
BRANCH 62 72
ATOM     72   C  SGN B   4     -22.880  48.663  16.4270  0.00  0.00     0.000 C
ATOM     73   O  SGN B   4     -21.867  47.768  16.7770  0.00  0.00     0.000 O
ATOM     74  @S  SGN B   4     -20.913  47.857  17.9810  0.00  0.00     0.000 S
ATOM     75   O  SGN B   4     -21.711  47.889  19.1500  0.00  0.00     0.000 OA
ATOM     76   O  SGN B   4     -20.124  46.666  17.8930  0.00  0.00     0.000 OA
ATOM     77   O  SGN B   4     -20.189  49.072  17.8130  0.00  0.00     0.000 OA
ENDBRANCH 62 72
BRANCH 58 78
ATOM     78  O4  IDS B   5     -21.476  48.122  12.5270  0.00  0.00     0.000 O
BRANCH 78 82
ATOM     79  C1  IDS B   5     -18.754  50.005  11.5050  0.00  0.00     0.000 C
ATOM     80  C2  IDS B   5     -19.759  49.559  10.4870  0.00  0.00     0.000 C
ATOM     81  C3  IDS B   5     -20.085  48.069  10.5550  0.00  0.00     0.000 C
ATOM     82  C4  IDS B   5     -20.296  47.580  11.9740  0.00  0.00     0.000 C
ATOM     83  C5  IDS B   5     -19.128  48.040  12.7870  0.00  0.00     0.000 C
ATOM     84  O5  IDS B   5     -19.068  49.454  12.7710  0.00  0.00     0.000 O
ATOM     85   O  IDS B   5     -18.990  47.365  10.0200  0.00  0.00     0.000 O
ATOM     87  HD  IDS B   5     -19.375  47.260  10.7890  0.00  0.00     0.000 HD
BRANCH 80 87
ATOM     87   O  IDS B   5     -20.932  50.235  10.7160  0.00  0.00     0.000 O
ATOM     88  @S  IDS B   5     -21.355  51.576  10.1120  0.00  0.00     0.000 S
ATOM     89   O  IDS B   5     -21.215  51.409   8.7100  0.00  0.00     0.000 OA
ATOM     90   O  IDS B   5     -22.692  51.781  10.5450  0.00  0.00     0.000 OA
ATOM     91   O  IDS B   5     -20.466  52.547  10.6480  0.00  0.00     0.000 OA
ENDBRANCH 80 87
BRANCH 83 92
ATOM     92 @CA  IDS B   5     -19.100  47.467  14.1990  0.00  0.00     0.000 C
ATOM     93   O  IDS B   5     -18.988  48.205  15.1810  0.00  0.00     0.000 OA
ATOM     94   O  IDS B   5     -19.184  46.247  14.3850  0.00  0.00     0.000 OA
ENDBRANCH 83 92
BRANCH 79 95
ATOM     95  O4  SGN B   6     -17.479  49.657  11.0810  0.00  0.00     0.000 O
BRANCH 95 99
ATOM     96  C1  SGN B   6     -13.926  50.254  13.1370  0.00  0.00     0.000 C
ATOM     97  C2  SGN B   6     -15.189  50.746  13.8330  0.00  0.00     0.000 C
ATOM     98  C3  SGN B   6     -16.355  49.967  13.2230  0.00  0.00     0.000 C
ATOM     99  C4  SGN B   6     -16.433  50.364  11.7220  0.00  0.00     0.000 C
ATOM    100  C5  SGN B   6     -15.078  49.949  11.0810  0.00  0.00     0.000 C
ATOM    101  O5  SGN B   6     -13.977  50.551  11.7550  0.00  0.00     0.000 O
BRANCH 97 104
ATOM    102   N  SGN B   6     -14.840  51.984  14.5370  0.00  0.00     0.000 N
ATOM    104  HD  SGN B   6     -14.035  51.924  14.8500  0.00  0.00     0.000 HD
ATOM    104 @NS  SGN B   6     -14.558  51.886  16.1690  0.00  0.00     0.000 S
ATOM    105   O  SGN B   6     -14.694  50.499  16.5560  0.00  0.00     0.000 OA
ATOM    106   O  SGN B   6     -13.220  52.386  16.3900  0.00  0.00     0.000 OA
ATOM    107   O  SGN B   6     -15.566  52.709  16.7990  0.00  0.00     0.000 OA
ENDBRANCH 97 104
BRANCH 100 108
ATOM    108   C  SGN B   6     -14.902  50.289   9.6050  0.00  0.00     0.000 C
ATOM    109   O  SGN B   6     -13.537  50.484   9.3310  0.00  0.00     0.000 O
ATOM    110  @S  SGN B   6     -12.925  50.857   7.9320  0.00  0.00     0.000 S
ATOM    111   O  SGN B   6     -13.827  51.822   7.3490  0.00  0.00     0.000 OA
ATOM    112   O  SGN B   6     -11.612  51.425   8.1960  0.00  0.00     0.000 OA
ATOM    113   O  SGN B   6     -12.871  49.620   7.1860  0.00  0.00     0.000 OA
ENDBRANCH 100 108
ENDBRANCH 95 99
ENDBRANCH 79 95
ENDBRANCH 78 82
ENDBRANCH 58 78
ENDBRANCH 57 61
ENDBRANCH 41 57
ENDBRANCH 40 44
ENDBRANCH 20 40
ENDBRANCH 19 23
ENDBRANCH 1 19
TORSDOF 22
ENDMDL
MODEL 91
REMARK VINA RESULT:       5.0      2.728      7.430
ROOT
ATOM      1  C1  IDS B   1     -25.007  59.393  10.6520  0.00  0.00     0.000 C
ATOM      2  C2  IDS B   1     -24.874  59.422   9.1520  0.00  0.00     0.000 C
ATOM      3  C3  IDS B   1     -26.179  59.209   8.3490  0.00  0.00     0.000 C
ATOM      4  C4  IDS B   1     -27.474  59.679   9.1090  0.00  0.00     0.000 C
ATOM      5  C5  IDS B   1     -27.327  59.594  10.6480  0.00  0.00     0.000 C
ATOM      6  O5  IDS B   1     -26.115  60.175  11.0490  0.00  0.00     0.000 O
ATOM      7   O  IDS B   1     -26.252  57.825   8.0210  0.00  0.00     0.000 O
ATOM      9  HD  IDS B   1     -27.048  58.165   8.0180  0.00  0.00     0.000 HD
ATOM      9   O  IDS B   1     -27.706  61.028   8.7690  0.00  0.00     0.000 O
ATOM     11  HD  IDS B   1     -28.502  61.368   8.7660  0.00  0.00     0.000 HD
ENDROOT
BRANCH 2 11
ATOM     11   O  IDS B   1     -24.363  60.647   8.7530  0.00  0.00     0.000 O
ATOM     12  @S  IDS B   1     -22.871  60.923   8.4830  0.00  0.00     0.000 S
ATOM     13   O  IDS B   1     -22.184  59.953   9.3110  0.00  0.00     0.000 OA
ATOM     14   O  IDS B   1     -22.656  60.699   7.0650  0.00  0.00     0.000 OA
ATOM     15   O  IDS B   1     -22.647  62.301   8.8750  0.00  0.00     0.000 OA
ENDBRANCH 2 11
BRANCH 5 16
ATOM     16 @CA  IDS B   1     -28.473  60.168  11.4760  0.00  0.00     0.000 C
ATOM     17   O  IDS B   1     -29.230  61.023  11.0220  0.00  0.00     0.000 OA
ATOM     18   O  IDS B   1     -28.673  59.774  12.6220  0.00  0.00     0.000 OA
ENDBRANCH 5 16
BRANCH 1 19
ATOM     19  O4  SGN B   2     -25.171  58.048  11.0500  0.00  0.00     0.000 O
BRANCH 19 23
ATOM     20  C1  SGN B   2     -23.346  55.723  13.8820  0.00  0.00     0.000 C
ATOM     21  C2  SGN B   2     -24.210  56.878  14.3370  0.00  0.00     0.000 C
ATOM     22  C3  SGN B   2     -25.201  57.201  13.2780  0.00  0.00     0.000 C
ATOM     23  C4  SGN B   2     -24.366  57.649  12.1000  0.00  0.00     0.000 C
ATOM     24  C5  SGN B   2     -23.616  56.437  11.6690  0.00  0.00     0.000 C
ATOM     25  O5  SGN B   2     -22.720  56.075  12.6560  0.00  0.00     0.000 O
ATOM     26   O  SGN B   2     -26.019  58.231  13.7100  0.00  0.00     0.000 O
ATOM     28  HD  SGN B   2     -26.425  58.981  13.8590  0.00  0.00     0.000 HD
BRANCH 21 30
ATOM     28   N  SGN B   2     -23.313  57.001  15.4490  0.00  0.00     0.000 N
ATOM     30  HD  SGN B   2     -23.005  56.192  15.4590  0.00  0.00     0.000 HD
ATOM     30 @NS  SGN B   2     -23.939  56.771  16.9310  0.00  0.00     0.000 S
ATOM     31   O  SGN B   2     -25.286  56.325  16.8060  0.00  0.00     0.000 OA
ATOM     32   O  SGN B   2     -23.116  55.777  17.4860  0.00  0.00     0.000 OA
ATOM     33   O  SGN B   2     -23.875  58.022  17.5860  0.00  0.00     0.000 OA
ENDBRANCH 21 30
BRANCH 24 34
ATOM     34   C  SGN B   2     -22.835  56.585  10.4150  0.00  0.00     0.000 C
ATOM     35   O  SGN B   2     -23.459  55.825   9.4420  0.00  0.00     0.000 O
ATOM     36  @S  SGN B   2     -23.088  55.881   7.9650  0.00  0.00     0.000 S
ATOM     37   O  SGN B   2     -22.087  54.845   7.8090  0.00  0.00     0.000 OA
ATOM     38   O  SGN B   2     -24.301  55.631   7.2220  0.00  0.00     0.000 OA
ATOM     39   O  SGN B   2     -22.579  57.229   7.7500  0.00  0.00     0.000 OA
ENDBRANCH 24 34
BRANCH 20 40
ATOM     40  O4  IDS B   3     -24.110  54.564  13.7450  0.00  0.00     0.000 O
BRANCH 40 44
ATOM     41  C1  IDS B   3     -24.194  51.059  13.8410  0.00  0.00     0.000 C
ATOM     42  C2  IDS B   3     -25.469  51.871  14.0580  0.00  0.00     0.000 C
ATOM     43  C3  IDS B   3     -25.348  53.053  15.0390  0.00  0.00     0.000 C
ATOM     44  C4  IDS B   3     -24.019  53.761  14.8750  0.00  0.00     0.000 C
ATOM     45  C5  IDS B   3     -22.852  52.773  14.7250  0.00  0.00     0.000 C
ATOM     46  O5  IDS B   3     -23.079  51.920  13.6620  0.00  0.00     0.000 O
ATOM     47   O  IDS B   3     -25.432  52.571  16.3640  0.00  0.00     0.000 O
ATOM     49  HD  IDS B   3     -25.505  53.155  15.7290  0.00  0.00     0.000 HD
BRANCH 42 49
ATOM     49   O  IDS B   3     -25.875  52.398  12.8270  0.00  0.00     0.000 O
ATOM     50   O  IDS B   3     -26.955  50.382  12.2630  0.00  0.00     0.000 OA
ATOM     51   O  IDS B   3     -27.973  52.438  11.6760  0.00  0.00     0.000 OA
ATOM     52   O  IDS B   3     -25.985  51.744  10.6080  0.00  0.00     0.000 OA
ATOM     53  @S  IDS B   3     -26.753  51.700  11.7840  0.00  0.00     0.000 S
ENDBRANCH 42 49
BRANCH 45 54
ATOM     54 @CA  IDS B   3     -21.470  53.408  14.5880  0.00  0.00     0.000 C
ATOM     55   O  IDS B   3     -20.904  53.464  13.5300  0.00  0.00     0.000 OA
ATOM     56   O  IDS B   3     -20.917  53.889  15.5210  0.00  0.00     0.000 OA
ENDBRANCH 45 54
BRANCH 41 57
ATOM     57  O4  SGN B   4     -24.007  50.192  14.9110  0.00  0.00     0.000 O
BRANCH 57 61
ATOM     58  C1  SGN B   4     -20.914  47.989  13.3060  0.00  0.00     0.000 C
ATOM     59  C2  SGN B   4     -22.291  47.700  12.7330  0.00  0.00     0.000 C
ATOM     60  C3  SGN B   4     -23.254  48.822  13.1110  0.00  0.00     0.000 C
ATOM     61  C4  SGN B   4     -23.293  49.028  14.6300  0.00  0.00     0.000 C
ATOM     62  C5  SGN B   4     -21.857  49.217  15.1130  0.00  0.00     0.000 C
ATOM     63  O5  SGN B   4     -21.034  48.139  14.7100  0.00  0.00     0.000 O
ATOM     64   O  SGN B   4     -24.552  48.476  12.6720  0.00  0.00     0.000 O
ATOM     66  HD  SGN B   4     -25.161  48.412  13.2840  0.00  0.00     0.000 HD
BRANCH 59 68
ATOM     66   N  SGN B   4     -22.287  46.414  12.0670  0.00  0.00     0.000 N
ATOM     68  HD  SGN B   4     -21.897  46.782  12.7470  0.00  0.00     0.000 HD
ATOM     68 @NS  SGN B   4     -21.516  46.237  10.6300  0.00  0.00     0.000 S
ATOM     69   O  SGN B   4     -21.716  47.430   9.8620  0.00  0.00     0.000 OA
ATOM     70   O  SGN B   4     -20.129  46.044  10.9420  0.00  0.00     0.000 OA
ATOM     71   O  SGN B   4     -22.130  45.088  10.0370  0.00  0.00     0.000 OA
ENDBRANCH 59 68
BRANCH 62 72
ATOM     72   C  SGN B   4     -21.751  49.305  16.6280  0.00  0.00     0.000 C
ATOM     73   O  SGN B   4     -21.227  48.077  17.0390  0.00  0.00     0.000 O
ATOM     74  @S  SGN B   4     -20.321  47.805  18.2520  0.00  0.00     0.000 S
ATOM     75   O  SGN B   4     -21.015  48.243  19.4050  0.00  0.00     0.000 OA
ATOM     76   O  SGN B   4     -20.132  46.386  18.2380  0.00  0.00     0.000 OA
ATOM     77   O  SGN B   4     -19.140  48.571  18.0350  0.00  0.00     0.000 OA
ENDBRANCH 62 72
BRANCH 58 78
ATOM     78  O4  IDS B   5     -20.360  49.133  12.6890  0.00  0.00     0.000 O
BRANCH 78 82
ATOM     79  C1  IDS B   5     -18.479  51.718  11.3550  0.00  0.00     0.000 C
ATOM     80  C2  IDS B   5     -18.984  50.636  10.4490  0.00  0.00     0.000 C
ATOM     81  C3  IDS B   5     -18.689  49.225  10.9500  0.00  0.00     0.000 C
ATOM     82  C4  IDS B   5     -18.975  49.057  12.4280  0.00  0.00     0.000 C
ATOM     83  C5  IDS B   5     -18.287  50.173  13.1490  0.00  0.00     0.000 C
ATOM     84  O5  IDS B   5     -18.800  51.413  12.7000  0.00  0.00     0.000 O
ATOM     85   O  IDS B   5     -17.319  48.976  10.7500  0.00  0.00     0.000 O
ATOM     87  HD  IDS B   5     -17.779  48.902  11.4800  0.00  0.00     0.000 HD
BRANCH 80 87
ATOM     87   O  IDS B   5     -20.350  50.752  10.3610  0.00  0.00     0.000 O
ATOM     88  @S  IDS B   5     -21.138  51.910   9.7460  0.00  0.00     0.000 S
ATOM     89   O  IDS B   5     -20.603  52.068   8.4420  0.00  0.00     0.000 OA
ATOM     90   O  IDS B   5     -22.498  51.499   9.7730  0.00  0.00     0.000 OA
ATOM     91   O  IDS B   5     -20.904  53.034  10.5840  0.00  0.00     0.000 OA
ENDBRANCH 80 87
BRANCH 83 92
ATOM     92 @CA  IDS B   5     -18.325  50.037  14.6670  0.00  0.00     0.000 C
ATOM     93   O  IDS B   5     -17.879  49.032  15.2260  0.00  0.00     0.000 OA
ATOM     94   O  IDS B   5     -18.809  50.935  15.3670  0.00  0.00     0.000 OA
ENDBRANCH 83 92
BRANCH 79 95
ATOM     95  O4  SGN B   6     -17.114  51.882  11.1640  0.00  0.00     0.000 O
BRANCH 95 99
ATOM     96  C1  SGN B   6     -16.751  55.408  13.3190  0.00  0.00     0.000 C
ATOM     97  C2  SGN B   6     -17.153  55.559  11.8570  0.00  0.00     0.000 C
ATOM     98  C3  SGN B   6     -17.755  54.220  11.4290  0.00  0.00     0.000 C
ATOM     99  C4  SGN B   6     -16.620  53.161  11.5210  0.00  0.00     0.000 C
ATOM    100  C5  SGN B   6     -16.163  53.126  13.0070  0.00  0.00     0.000 C
ATOM    101  O5  SGN B   6     -15.753  54.415  13.4550  0.00  0.00     0.000 O
BRANCH 97 104
ATOM    102   N  SGN B   6     -18.008  56.749  11.9130  0.00  0.00     0.000 N
ATOM    104  HD  SGN B   6     -18.224  56.990  11.1100  0.00  0.00     0.000 HD
ATOM    104 @NS  SGN B   6     -17.419  58.150  11.2480  0.00  0.00     0.000 S
ATOM    105   O  SGN B   6     -16.116  57.859  10.6920  0.00  0.00     0.000 OA
ATOM    106   O  SGN B   6     -18.365  58.561  10.2370  0.00  0.00     0.000 OA
ATOM    107   O  SGN B   6     -17.326  59.100  12.3350  0.00  0.00     0.000 OA
ENDBRANCH 97 104
BRANCH 100 108
ATOM    108   C  SGN B   6     -15.011  52.183  13.3320  0.00  0.00     0.000 C
ATOM    109   O  SGN B   6     -15.298  51.486  14.5190  0.00  0.00     0.000 O
ATOM    110  @S  SGN B   6     -14.370  50.421  15.2070  0.00  0.00     0.000 S
ATOM    111   O  SGN B   6     -13.025  50.931  15.0900  0.00  0.00     0.000 OA
ATOM    112   O  SGN B   6     -14.804  50.332  16.5920  0.00  0.00     0.000 OA
ATOM    113   O  SGN B   6     -14.568  49.194  14.4700  0.00  0.00     0.000 OA
ENDBRANCH 100 108
ENDBRANCH 95 99
ENDBRANCH 79 95
ENDBRANCH 78 82
ENDBRANCH 58 78
ENDBRANCH 57 61
ENDBRANCH 41 57
ENDBRANCH 40 44
ENDBRANCH 20 40
ENDBRANCH 19 23
ENDBRANCH 1 19
TORSDOF 22
ENDMDL
MODEL 92
REMARK VINA RESULT:       5.1      2.684      7.838
ROOT
ATOM      1  C1  IDS B   1     -23.883  58.705  10.4290  0.00  0.00     0.000 C
ATOM      2  C2  IDS B   1     -23.346  58.628   9.0240  0.00  0.00     0.000 C
ATOM      3  C3  IDS B   1     -24.387  58.354   7.9120  0.00  0.00     0.000 C
ATOM      4  C4  IDS B   1     -25.833  58.873   8.2570  0.00  0.00     0.000 C
ATOM      5  C5  IDS B   1     -26.111  58.897   9.7790  0.00  0.00     0.000 C
ATOM      6  O5  IDS B   1     -25.045  59.509  10.4540  0.00  0.00     0.000 O
ATOM      7   O  IDS B   1     -24.391  56.950   7.6740  0.00  0.00     0.000 O
ATOM      9  HD  IDS B   1     -25.151  57.287   7.4310  0.00  0.00     0.000 HD
ATOM      9   O  IDS B   1     -25.941  60.193   7.7740  0.00  0.00     0.000 O
ATOM     11  HD  IDS B   1     -26.701  60.530   7.5300  0.00  0.00     0.000 HD
ENDROOT
BRANCH 2 11
ATOM     11   O  IDS B   1     -22.727  59.823   8.6950  0.00  0.00     0.000 O
ATOM     12  @S  IDS B   1     -21.203  60.048   8.7130  0.00  0.00     0.000 S
ATOM     13   O  IDS B   1     -20.722  59.090   9.6870  0.00  0.00     0.000 OA
ATOM     14   O  IDS B   1     -20.725  59.767   7.3710  0.00  0.00     0.000 OA
ATOM     15   O  IDS B   1     -21.012  61.432   9.1000  0.00  0.00     0.000 OA
ENDBRANCH 2 11
BRANCH 5 16
ATOM     16 @CA  IDS B   1     -27.429  59.525  10.2220  0.00  0.00     0.000 C
ATOM     17   O  IDS B   1     -28.291  58.872  10.8040  0.00  0.00     0.000 OA
ATOM     18   O  IDS B   1     -27.653  60.716  10.0140  0.00  0.00     0.000 OA
ENDBRANCH 5 16
BRANCH 1 19
ATOM     19  O4  SGN B   2     -24.172  57.391  10.8600  0.00  0.00     0.000 O
BRANCH 19 23
ATOM     20  C1  SGN B   2     -23.053  55.207  14.1360  0.00  0.00     0.000 C
ATOM     21  C2  SGN B   2     -23.914  56.434  14.3410  0.00  0.00     0.000 C
ATOM     22  C3  SGN B   2     -24.668  56.723  13.0930  0.00  0.00     0.000 C
ATOM     23  C4  SGN B   2     -23.602  57.037  12.0680  0.00  0.00     0.000 C
ATOM     24  C5  SGN B   2     -22.862  55.759  11.8690  0.00  0.00     0.000 C
ATOM     25  O5  SGN B   2     -22.190  55.433  13.0310  0.00  0.00     0.000 O
ATOM     26   O  SGN B   2     -25.486  57.821  13.2910  0.00  0.00     0.000 O
ATOM     28  HD  SGN B   2     -25.866  58.599  13.3090  0.00  0.00     0.000 HD
BRANCH 21 30
ATOM     28   N  SGN B   2     -24.696  56.880  15.4570  0.00  0.00     0.000 N
ATOM     30  HD  SGN B   2     -24.368  57.678  15.5350  0.00  0.00     0.000 HD
ATOM     30 @NS  SGN B   2     -24.138  56.516  16.9390  0.00  0.00     0.000 S
ATOM     31   O  SGN B   2     -22.846  55.928  16.8220  0.00  0.00     0.000 OA
ATOM     32   O  SGN B   2     -24.081  57.762  17.5860  0.00  0.00     0.000 OA
ATOM     33   O  SGN B   2     -25.065  55.605  17.4980  0.00  0.00     0.000 OA
ENDBRANCH 21 30
BRANCH 24 34
ATOM     34   C  SGN B   2     -21.853  55.772  10.7800  0.00  0.00     0.000 C
ATOM     35   O  SGN B   2     -20.683  55.237  11.2890  0.00  0.00     0.000 O
ATOM     36  @S  SGN B   2     -19.478  54.880  10.4270  0.00  0.00     0.000 S
ATOM     37   O  SGN B   2     -18.665  56.080  10.4370  0.00  0.00     0.000 OA
ATOM     38   O  SGN B   2     -18.841  53.745  11.0530  0.00  0.00     0.000 OA
ATOM     39   O  SGN B   2     -20.028  54.551   9.1190  0.00  0.00     0.000 OA
ENDBRANCH 24 34
BRANCH 20 40
ATOM     40  O4  IDS B   3     -23.850  54.080  13.9350  0.00  0.00     0.000 O
BRANCH 40 44
ATOM     41  C1  IDS B   3     -24.656  50.676  14.2000  0.00  0.00     0.000 C
ATOM     42  C2  IDS B   3     -25.750  51.740  14.2750  0.00  0.00     0.000 C
ATOM     43  C3  IDS B   3     -25.455  52.935  15.2020  0.00  0.00     0.000 C
ATOM     44  C4  IDS B   3     -24.000  53.350  15.1070  0.00  0.00     0.000 C
ATOM     45  C5  IDS B   3     -23.053  52.140  15.0990  0.00  0.00     0.000 C
ATOM     46  O5  IDS B   3     -23.379  51.282  14.0660  0.00  0.00     0.000 O
ATOM     47   O  IDS B   3     -25.724  52.567  16.5390  0.00  0.00     0.000 O
ATOM     49  HD  IDS B   3     -25.632  53.111  15.8720  0.00  0.00     0.000 HD
BRANCH 42 49
ATOM     49   O  IDS B   3     -25.956  52.257  12.9910  0.00  0.00     0.000 O
ATOM     50   O  IDS B   3     -27.688  50.711  12.5930  0.00  0.00     0.000 OA
ATOM     51   O  IDS B   3     -27.916  52.927  11.7930  0.00  0.00     0.000 OA
ATOM     52   O  IDS B   3     -26.316  51.476  10.8410  0.00  0.00     0.000 OA
ATOM     53  @S  IDS B   3     -27.036  51.819  11.9980  0.00  0.00     0.000 S
ENDBRANCH 42 49
BRANCH 45 54
ATOM     54 @CA  IDS B   3     -21.565  52.475  15.0390  0.00  0.00     0.000 C
ATOM     55   O  IDS B   3     -20.983  52.931  15.9860  0.00  0.00     0.000 OA
ATOM     56   O  IDS B   3     -20.926  52.273  14.0600  0.00  0.00     0.000 OA
ENDBRANCH 45 54
BRANCH 41 57
ATOM     57  O4  SGN B   4     -24.723  49.861  15.3230  0.00  0.00     0.000 O
BRANCH 57 61
ATOM     58  C1  SGN B   4     -22.381  46.803  13.8540  0.00  0.00     0.000 C
ATOM     59  C2  SGN B   4     -23.809  46.843  13.3360  0.00  0.00     0.000 C
ATOM     60  C3  SGN B   4     -24.429  48.205  13.6350  0.00  0.00     0.000 C
ATOM     61  C4  SGN B   4     -24.349  48.532  15.1300  0.00  0.00     0.000 C
ATOM     62  C5  SGN B   4     -22.895  48.374  15.5660  0.00  0.00     0.000 C
ATOM     63  O5  SGN B   4     -22.398  47.089  15.2420  0.00  0.00     0.000 O
ATOM     64   O  SGN B   4     -25.789  48.178  13.2530  0.00  0.00     0.000 O
ATOM     66  HD  SGN B   4     -26.368  48.325  13.8810  0.00  0.00     0.000 HD
BRANCH 59 68
ATOM     66   N  SGN B   4     -24.196  45.569  12.7650  0.00  0.00     0.000 N
ATOM     68  HD  SGN B   4     -23.706  45.852  13.4210  0.00  0.00     0.000 HD
ATOM     68 @NS  SGN B   4     -23.530  45.066  11.3530  0.00  0.00     0.000 S
ATOM     69   O  SGN B   4     -23.373  46.206  10.4990  0.00  0.00     0.000 OA
ATOM     70   O  SGN B   4     -22.261  44.491  11.6930  0.00  0.00     0.000 OA
ATOM     71   O  SGN B   4     -24.467  44.114  10.8390  0.00  0.00     0.000 OA
ENDBRANCH 59 68
BRANCH 62 72
ATOM     72   C  SGN B   4     -22.705  48.550  17.0650  0.00  0.00     0.000 C
ATOM     73   O  SGN B   4     -21.809  47.549  17.4490  0.00  0.00     0.000 O
ATOM     74  @S  SGN B   4     -20.774  47.606  18.5860  0.00  0.00     0.000 S
ATOM     75   O  SGN B   4     -21.478  47.864  19.7870  0.00  0.00     0.000 OA
ATOM     76   O  SGN B   4     -20.172  46.307  18.5780  0.00  0.00     0.000 OA
ATOM     77   O  SGN B   4     -19.895  48.678  18.2590  0.00  0.00     0.000 OA
ENDBRANCH 62 72
BRANCH 58 78
ATOM     78  O4  IDS B   5     -21.574  47.709  13.1290  0.00  0.00     0.000 O
BRANCH 78 82
ATOM     79  C1  IDS B   5     -19.170  49.548  11.4450  0.00  0.00     0.000 C
ATOM     80  C2  IDS B   5     -20.084  48.650  10.6670  0.00  0.00     0.000 C
ATOM     81  C3  IDS B   5     -20.174  47.231  11.2230  0.00  0.00     0.000 C
ATOM     82  C4  IDS B   5     -20.319  47.201  12.7300  0.00  0.00     0.000 C
ATOM     83  C5  IDS B   5     -19.245  48.069  13.3040  0.00  0.00     0.000 C
ATOM     84  O5  IDS B   5     -19.405  49.394  12.8330  0.00  0.00     0.000 O
ATOM     85   O  IDS B   5     -18.978  46.566  10.8960  0.00  0.00     0.000 O
ATOM     87  HD  IDS B   5     -19.348  46.658  11.6730  0.00  0.00     0.000 HD
BRANCH 80 87
ATOM     87   O  IDS B   5     -21.349  49.180  10.7160  0.00  0.00     0.000 O
ATOM     88  @S  IDS B   5     -21.773  50.592  10.3050  0.00  0.00     0.000 S
ATOM     89   O  IDS B   5     -21.284  50.753   8.9830  0.00  0.00     0.000 OA
ATOM     90   O  IDS B   5     -23.190  50.606  10.4090  0.00  0.00     0.000 OA
ATOM     91   O  IDS B   5     -21.161  51.473  11.2370  0.00  0.00     0.000 OA
ENDBRANCH 80 87
BRANCH 83 92
ATOM     92 @CA  IDS B   5     -19.141  47.994  14.8220  0.00  0.00     0.000 C
ATOM     93   O  IDS B   5     -19.044  46.908  15.3990  0.00  0.00     0.000 OA
ATOM     94   O  IDS B   5     -19.157  49.025  15.5060  0.00  0.00     0.000 OA
ENDBRANCH 83 92
BRANCH 79 95
ATOM     95  O4  SGN B   6     -17.852  49.276  11.1020  0.00  0.00     0.000 O
BRANCH 95 99
ATOM     96  C1  SGN B   6     -14.604  51.733  11.8930  0.00  0.00     0.000 C
ATOM     97  C2  SGN B   6     -15.970  52.295  12.2670  0.00  0.00     0.000 C
ATOM     98  C3  SGN B   6     -16.906  51.096  12.4240  0.00  0.00     0.000 C
ATOM     99  C4  SGN B   6     -17.017  50.418  11.0280  0.00  0.00     0.000 C
ATOM    100  C5  SGN B   6     -15.580  49.967  10.6380  0.00  0.00     0.000 C
ATOM    101  O5  SGN B   6     -14.670  51.062  10.6500  0.00  0.00     0.000 O
BRANCH 97 104
ATOM    102   N  SGN B   6     -15.856  53.119  13.4740  0.00  0.00     0.000 N
ATOM    104  HD  SGN B   6     -16.541  53.645  13.5330  0.00  0.00     0.000 HD
ATOM    104 @NS  SGN B   6     -15.700  54.758  13.2730  0.00  0.00     0.000 S
ATOM    105   O  SGN B   6     -15.749  55.033  11.8540  0.00  0.00     0.000 OA
ATOM    106   O  SGN B   6     -16.796  55.371  13.9860  0.00  0.00     0.000 OA
ATOM    107   O  SGN B   6     -14.413  55.108  13.8320  0.00  0.00     0.000 OA
ENDBRANCH 97 104
BRANCH 100 108
ATOM    108   C  SGN B   6     -15.432  49.313   9.2690  0.00  0.00     0.000 C
ATOM    109   O  SGN B   6     -15.696  47.936   9.3790  0.00  0.00     0.000 O
ATOM    110  @S  SGN B   6     -15.648  46.894   8.2030  0.00  0.00     0.000 S
ATOM    111   O  SGN B   6     -14.500  47.251   7.4040  0.00  0.00     0.000 OA
ATOM    112   O  SGN B   6     -15.500  45.586   8.8200  0.00  0.00     0.000 OA
ATOM    113   O  SGN B   6     -16.895  47.050   7.4900  0.00  0.00     0.000 OA
ENDBRANCH 100 108
ENDBRANCH 95 99
ENDBRANCH 79 95
ENDBRANCH 78 82
ENDBRANCH 58 78
ENDBRANCH 57 61
ENDBRANCH 41 57
ENDBRANCH 40 44
ENDBRANCH 20 40
ENDBRANCH 19 23
ENDBRANCH 1 19
TORSDOF 22
ENDMDL
MODEL 93
REMARK VINA RESULT:       5.2      2.728      8.145
ROOT
ATOM      1  C1  IDS B   1     -28.058  52.471  11.2560  0.00  0.00     0.000 C
ATOM      2  C2  IDS B   1     -28.079  53.897  11.7390  0.00  0.00     0.000 C
ATOM      3  C3  IDS B   1     -27.174  54.889  10.9700  0.00  0.00     0.000 C
ATOM      4  C4  IDS B   1     -26.932  54.490   9.4660  0.00  0.00     0.000 C
ATOM      5  C5  IDS B   1     -27.012  52.961   9.2340  0.00  0.00     0.000 C
ATOM      6  O5  IDS B   1     -28.161  52.441   9.8470  0.00  0.00     0.000 O
ATOM      7   O  IDS B   1     -25.943  54.976  11.6800  0.00  0.00     0.000 O
ATOM      9  HD  IDS B   1     -25.815  55.194  10.8520  0.00  0.00     0.000 HD
ATOM      9   O  IDS B   1     -27.940  55.100   8.6920  0.00  0.00     0.000 O
ATOM     11  HD  IDS B   1     -27.812  55.318   7.8640  0.00  0.00     0.000 HD
ENDROOT
BRANCH 2 11
ATOM     11   O  IDS B   1     -29.369  54.398  11.6560  0.00  0.00     0.000 O
ATOM     12  @S  IDS B   1     -30.179  54.921  12.8580  0.00  0.00     0.000 S
ATOM     13   O  IDS B   1     -29.623  54.205  13.9890  0.00  0.00     0.000 OA
ATOM     14   O  IDS B   1     -29.939  56.351  12.9320  0.00  0.00     0.000 OA
ATOM     15   O  IDS B   1     -31.562  54.597  12.5740  0.00  0.00     0.000 OA
ENDBRANCH 2 11
BRANCH 5 16
ATOM     16 @CA  IDS B   1     -26.940  52.486   7.7860  0.00  0.00     0.000 C
ATOM     17   O  IDS B   1     -26.484  53.200   6.8960  0.00  0.00     0.000 OA
ATOM     18   O  IDS B   1     -27.330  51.362   7.4790  0.00  0.00     0.000 OA
ENDBRANCH 5 16
BRANCH 1 19
ATOM     19  O4  SGN B   2     -26.848  51.882  11.6850  0.00  0.00     0.000 O
BRANCH 19 23
ATOM     20  C1  SGN B   2     -25.993  48.420  13.6960  0.00  0.00     0.000 C
ATOM     21  C2  SGN B   2     -26.923  48.357  12.5030  0.00  0.00     0.000 C
ATOM     22  C3  SGN B   2     -26.650  49.509  11.6040  0.00  0.00     0.000 C
ATOM     23  C4  SGN B   2     -26.995  50.727  12.4300  0.00  0.00     0.000 C
ATOM     24  C5  SGN B   2     -25.985  50.755  13.5250  0.00  0.00     0.000 C
ATOM     25  O5  SGN B   2     -26.176  49.666  14.3530  0.00  0.00     0.000 O
ATOM     26   O  SGN B   2     -27.472  49.430  10.4920  0.00  0.00     0.000 O
ATOM     28  HD  SGN B   2     -28.082  49.523   9.8850  0.00  0.00     0.000 HD
BRANCH 21 30
ATOM     28   N  SGN B   2     -27.575  47.285  13.1970  0.00  0.00     0.000 N
ATOM     30  HD  SGN B   2     -26.910  47.024  13.6880  0.00  0.00     0.000 HD
ATOM     30 @NS  SGN B   2     -27.589  45.835  12.4650  0.00  0.00     0.000 S
ATOM     31   O  SGN B   2     -26.782  45.894  11.2920  0.00  0.00     0.000 OA
ATOM     32   O  SGN B   2     -27.038  44.973  13.4280  0.00  0.00     0.000 OA
ATOM     33   O  SGN B   2     -28.940  45.569  12.1410  0.00  0.00     0.000 OA
ENDBRANCH 21 30
BRANCH 24 34
ATOM     34   C  SGN B   2     -26.018  51.961  14.3890  0.00  0.00     0.000 C
ATOM     35   O  SGN B   2     -24.821  52.632  14.2140  0.00  0.00     0.000 O
ATOM     36  @S  SGN B   2     -24.553  54.029  14.7630  0.00  0.00     0.000 S
ATOM     37   O  SGN B   2     -23.967  53.793  16.0680  0.00  0.00     0.000 OA
ATOM     38   O  SGN B   2     -23.654  54.675  13.8340  0.00  0.00     0.000 OA
ATOM     39   O  SGN B   2     -25.856  54.678  14.8100  0.00  0.00     0.000 OA
ENDBRANCH 24 34
BRANCH 20 40
ATOM     40  O4  IDS B   3     -24.669  48.250  13.2920  0.00  0.00     0.000 O
BRANCH 40 44
ATOM     41  C1  IDS B   3     -21.419  46.964  12.9960  0.00  0.00     0.000 C
ATOM     42  C2  IDS B   3     -22.631  46.039  12.8980  0.00  0.00     0.000 C
ATOM     43  C3  IDS B   3     -23.705  46.230  13.9860  0.00  0.00     0.000 C
ATOM     44  C4  IDS B   3     -23.898  47.698  14.3070  0.00  0.00     0.000 C
ATOM     45  C5  IDS B   3     -22.560  48.446  14.4170  0.00  0.00     0.000 C
ATOM     46  O5  IDS B   3     -21.830  48.299  13.2540  0.00  0.00     0.000 O
ATOM     47   O  IDS B   3     -23.298  45.568  15.1660  0.00  0.00     0.000 O
ATOM     49  HD  IDS B   3     -23.863  45.905  14.6030  0.00  0.00     0.000 HD
BRANCH 42 49
ATOM     49   O  IDS B   3     -23.253  46.252  11.6630  0.00  0.00     0.000 O
ATOM     50   O  IDS B   3     -21.807  44.718  10.6130  0.00  0.00     0.000 OA
ATOM     51   O  IDS B   3     -24.086  44.774   9.9750  0.00  0.00     0.000 OA
ATOM     52   O  IDS B   3     -22.657  46.578   9.4500  0.00  0.00     0.000 OA
ATOM     53  @S  IDS B   3     -22.934  45.534  10.3490  0.00  0.00     0.000 S
ENDBRANCH 42 49
BRANCH 45 54
ATOM     54 @CA  IDS B   3     -22.666  49.928  14.7730  0.00  0.00     0.000 C
ATOM     55   O  IDS B   3     -22.257  50.784  14.0360  0.00  0.00     0.000 OA
ATOM     56   O  IDS B   3     -23.179  50.284  15.7810  0.00  0.00     0.000 OA
ENDBRANCH 45 54
BRANCH 41 57
ATOM     57  O4  SGN B   4     -20.553  46.495  13.9770  0.00  0.00     0.000 O
BRANCH 57 61
ATOM     58  C1  SGN B   4     -17.320  48.900  13.1060  0.00  0.00     0.000 C
ATOM     59  C2  SGN B   4     -17.587  47.776  12.1190  0.00  0.00     0.000 C
ATOM     60  C3  SGN B   4     -18.995  47.227  12.3290  0.00  0.00     0.000 C
ATOM     61  C4  SGN B   4     -19.203  46.780  13.7800  0.00  0.00     0.000 C
ATOM     62  C5  SGN B   4     -18.822  47.947  14.6880  0.00  0.00     0.000 C
ATOM     63  O5  SGN B   4     -17.508  48.400  14.4190  0.00  0.00     0.000 O
ATOM     64   O  SGN B   4     -19.177  46.109  11.4850  0.00  0.00     0.000 O
ATOM     66  HD  SGN B   4     -19.356  45.357  11.8750  0.00  0.00     0.000 HD
BRANCH 59 68
ATOM     66   N  SGN B   4     -16.413  47.509  11.3140  0.00  0.00     0.000 N
ATOM     68  HD  SGN B   4     -16.587  47.753  12.1260  0.00  0.00     0.000 HD
ATOM     68 @NS  SGN B   4     -15.932  48.591  10.1790  0.00  0.00     0.000 S
ATOM     69   O  SGN B   4     -17.101  49.147   9.5630  0.00  0.00     0.000 OA
ATOM     70   O  SGN B   4     -15.184  49.596  10.8780  0.00  0.00     0.000 OA
ATOM     71   O  SGN B   4     -15.139  47.822   9.2690  0.00  0.00     0.000 OA
ENDBRANCH 59 68
BRANCH 62 72
ATOM     72   C  SGN B   4     -18.866  47.586  16.1650  0.00  0.00     0.000 C
ATOM     73   O  SGN B   4     -20.140  47.952  16.6020  0.00  0.00     0.000 O
ATOM     74  @S  SGN B   4     -20.978  47.287  17.7080  0.00  0.00     0.000 S
ATOM     75   O  SGN B   4     -20.218  47.337  18.9020  0.00  0.00     0.000 OA
ATOM     76   O  SGN B   4     -22.161  48.089  17.7830  0.00  0.00     0.000 OA
ATOM     77   O  SGN B   4     -21.187  45.944  17.2820  0.00  0.00     0.000 OA
ENDBRANCH 62 72
BRANCH 58 78
ATOM     78  O4  IDS B   5     -18.159  50.003  12.8270  0.00  0.00     0.000 O
BRANCH 78 82
ATOM     79  C1  IDS B   5     -19.795  53.043  12.5420  0.00  0.00     0.000 C
ATOM     80  C2  IDS B   5     -19.188  52.420  11.3220  0.00  0.00     0.000 C
ATOM     81  C3  IDS B   5     -17.738  51.980  11.5100  0.00  0.00     0.000 C
ATOM     82  C4  IDS B   5     -17.512  51.257  12.8220  0.00  0.00     0.000 C
ATOM     83  C5  IDS B   5     -18.093  52.103  13.9090  0.00  0.00     0.000 C
ATOM     84  O5  IDS B   5     -19.481  52.271  13.6870  0.00  0.00     0.000 O
ATOM     85   O  IDS B   5     -16.936  53.137  11.5160  0.00  0.00     0.000 O
ATOM     87  HD  IDS B   5     -16.974  52.504  12.1060  0.00  0.00     0.000 HD
BRANCH 80 87
ATOM     87   O  IDS B   5     -19.910  51.295  11.0090  0.00  0.00     0.000 O
ATOM     88  @S  IDS B   5     -21.228  51.232  10.2340  0.00  0.00     0.000 S
ATOM     89   O  IDS B   5     -20.981  51.939   9.0300  0.00  0.00     0.000 OA
ATOM     90   O  IDS B   5     -21.495  49.848  10.0550  0.00  0.00     0.000 OA
ATOM     91   O  IDS B   5     -22.200  51.860  11.0600  0.00  0.00     0.000 OA
ENDBRANCH 80 87
BRANCH 83 92
ATOM     92 @CA  IDS B   5     -17.780  51.600  15.3130  0.00  0.00     0.000 C
ATOM     93   O  IDS B   5     -16.615  51.510  15.7090  0.00  0.00     0.000 OA
ATOM     94   O  IDS B   5     -18.691  51.265  16.0790  0.00  0.00     0.000 OA
ENDBRANCH 83 92
BRANCH 79 95
ATOM     95  O4  SGN B   6     -19.359  54.356  12.6570  0.00  0.00     0.000 O
BRANCH 95 99
ATOM     96  C1  SGN B   6     -21.395  57.390  10.6930  0.00  0.00     0.000 C
ATOM     97  C2  SGN B   6     -21.615  55.982  10.1520  0.00  0.00     0.000 C
ATOM     98  C3  SGN B   6     -21.266  55.020  11.2880  0.00  0.00     0.000 C
ATOM     99  C4  SGN B   6     -19.751  55.201  11.5900  0.00  0.00     0.000 C
ATOM    100  C5  SGN B   6     -19.559  56.682  12.0250  0.00  0.00     0.000 C
ATOM    101  O5  SGN B   6     -20.035  57.582  11.0290  0.00  0.00     0.000 O
BRANCH 97 104
ATOM    102   N  SGN B   6     -22.075  56.745   8.9880  0.00  0.00     0.000 N
ATOM    104  HD  SGN B   6     -22.910  56.953   9.0880  0.00  0.00     0.000 HD
ATOM    104 @NS  SGN B   6     -23.251  56.061   8.0380  0.00  0.00     0.000 S
ATOM    105   O  SGN B   6     -23.611  54.791   8.6300  0.00  0.00     0.000 OA
ATOM    106   O  SGN B   6     -24.360  56.987   8.0180  0.00  0.00     0.000 OA
ATOM    107   O  SGN B   6     -22.656  55.883   6.7320  0.00  0.00     0.000 OA
ENDBRANCH 97 104
BRANCH 100 108
ATOM    108   C  SGN B   6     -18.128  57.111  12.3280  0.00  0.00     0.000 C
ATOM    109   O  SGN B   6     -18.065  57.642  13.6280  0.00  0.00     0.000 O
ATOM    110  @S  SGN B   6     -16.777  58.206  14.3300  0.00  0.00     0.000 S
ATOM    111   O  SGN B   6     -16.064  58.945  13.3160  0.00  0.00     0.000 OA
ATOM    112   O  SGN B   6     -17.239  59.064  15.4090  0.00  0.00     0.000 OA
ATOM    113   O  SGN B   6     -16.047  57.049  14.7960  0.00  0.00     0.000 OA
ENDBRANCH 100 108
ENDBRANCH 95 99
ENDBRANCH 79 95
ENDBRANCH 78 82
ENDBRANCH 58 78
ENDBRANCH 57 61
ENDBRANCH 41 57
ENDBRANCH 40 44
ENDBRANCH 20 40
ENDBRANCH 19 23
ENDBRANCH 1 19
TORSDOF 22
ENDMDL
MODEL 94
REMARK VINA RESULT:       5.3      3.377      9.353
ROOT
ATOM      1  C1  IDS B   1     -26.648  58.273  10.5390  0.00  0.00     0.000 C
ATOM      2  C2  IDS B   1     -26.997  59.737  10.4660  0.00  0.00     0.000 C
ATOM      3  C3  IDS B   1     -28.505  60.080  10.5050  0.00  0.00     0.000 C
ATOM      4  C4  IDS B   1     -29.374  59.023  11.2830  0.00  0.00     0.000 C
ATOM      5  C5  IDS B   1     -28.764  57.601  11.2410  0.00  0.00     0.000 C
ATOM      6  O5  IDS B   1     -27.400  57.653  11.5620  0.00  0.00     0.000 O
ATOM      7   O  IDS B   1     -28.944  60.210   9.1560  0.00  0.00     0.000 O
ATOM      9  HD  IDS B   1     -29.618  60.012   9.6620  0.00  0.00     0.000 HD
ATOM      9   O  IDS B   1     -29.438  59.430  12.6320  0.00  0.00     0.000 O
ATOM     11  HD  IDS B   1     -30.112  59.231  13.1370  0.00  0.00     0.000 HD
ENDROOT
BRANCH 2 11
ATOM     11   O  IDS B   1     -26.414  60.408  11.5290  0.00  0.00     0.000 O
ATOM     12  @S  IDS B   1     -25.289  61.452  11.3900  0.00  0.00     0.000 S
ATOM     13   O  IDS B   1     -24.619  61.077  10.1610  0.00  0.00     0.000 OA
ATOM     14   O  IDS B   1     -25.933  62.750  11.3000  0.00  0.00     0.000 OA
ATOM     15   O  IDS B   1     -24.470  61.311  12.5770  0.00  0.00     0.000 OA
ENDBRANCH 2 11
BRANCH 5 16
ATOM     16 @CA  IDS B   1     -29.453  56.538  12.0920  0.00  0.00     0.000 C
ATOM     17   O  IDS B   1     -30.668  56.546  12.2730  0.00  0.00     0.000 OA
ATOM     18   O  IDS B   1     -28.801  55.633  12.6080  0.00  0.00     0.000 OA
ENDBRANCH 5 16
BRANCH 1 19
ATOM     19  O4  SGN B   2     -26.933  57.693   9.2830  0.00  0.00     0.000 O
BRANCH 19 23
ATOM     20  C1  SGN B   2     -24.035  54.806   9.1340  0.00  0.00     0.000 C
ATOM     21  C2  SGN B   2     -23.672  56.221   8.7400  0.00  0.00     0.000 C
ATOM     22  C3  SGN B   2     -24.610  57.171   9.3910  0.00  0.00     0.000 C
ATOM     23  C4  SGN B   2     -25.962  56.832   8.8070  0.00  0.00     0.000 C
ATOM     24  C5  SGN B   2     -26.274  55.465   9.3100  0.00  0.00     0.000 C
ATOM     25  O5  SGN B   2     -25.385  54.561   8.7640  0.00  0.00     0.000 O
ATOM     26   O  SGN B   2     -24.254  58.468   9.0650  0.00  0.00     0.000 O
ATOM     28  HD  SGN B   2     -24.184  59.270   8.7450  0.00  0.00     0.000 HD
BRANCH 21 30
ATOM     28   N  SGN B   2     -22.734  55.528   7.9050  0.00  0.00     0.000 N
ATOM     30  HD  SGN B   2     -22.579  54.848   8.4190  0.00  0.00     0.000 HD
ATOM     30 @NS  SGN B   2     -21.174  55.964   8.0300  0.00  0.00     0.000 S
ATOM     31   O  SGN B   2     -21.030  56.889   9.1040  0.00  0.00     0.000 OA
ATOM     32   O  SGN B   2     -20.513  54.754   8.3000  0.00  0.00     0.000 OA
ATOM     33   O  SGN B   2     -20.829  56.560   6.7950  0.00  0.00     0.000 OA
ENDBRANCH 21 30
BRANCH 24 34
ATOM     34   C  SGN B   2     -27.637  54.968   8.9970  0.00  0.00     0.000 C
ATOM     35   O  SGN B   2     -27.845  53.823   9.7440  0.00  0.00     0.000 O
ATOM     36  @S  SGN B   2     -29.200  53.133   9.8660  0.00  0.00     0.000 S
ATOM     37   O  SGN B   2     -29.202  52.159   8.7920  0.00  0.00     0.000 OA
ATOM     38   O  SGN B   2     -29.248  52.542  11.1830  0.00  0.00     0.000 OA
ATOM     39   O  SGN B   2     -30.184  54.194   9.7020  0.00  0.00     0.000 OA
ENDBRANCH 24 34
BRANCH 20 40
ATOM     40  O4  IDS B   3     -23.841  54.614  10.5010  0.00  0.00     0.000 O
BRANCH 40 44
ATOM     41  C1  IDS B   3     -22.541  53.583  13.5920  0.00  0.00     0.000 C
ATOM     42  C2  IDS B   3     -22.521  55.058  13.1950  0.00  0.00     0.000 C
ATOM     43  C3  IDS B   3     -22.017  55.359  11.7700  0.00  0.00     0.000 C
ATOM     44  C4  IDS B   3     -22.515  54.318  10.7880  0.00  0.00     0.000 C
ATOM     45  C5  IDS B   3     -22.403  52.892  11.3510  0.00  0.00     0.000 C
ATOM     46  O5  IDS B   3     -23.088  52.793  12.5460  0.00  0.00     0.000 O
ATOM     47   O  IDS B   3     -20.605  55.339  11.7600  0.00  0.00     0.000 O
ATOM     49  HD  IDS B   3     -21.395  55.567  11.4880  0.00  0.00     0.000 HD
BRANCH 42 49
ATOM     49   O  IDS B   3     -23.824  55.560  13.2860  0.00  0.00     0.000 O
ATOM     50   O  IDS B   3     -23.386  56.451  15.4220  0.00  0.00     0.000 OA
ATOM     51   O  IDS B   3     -24.715  57.692  13.9070  0.00  0.00     0.000 OA
ATOM     52   O  IDS B   3     -25.533  55.686  14.8420  0.00  0.00     0.000 OA
ATOM     53  @S  IDS B   3     -24.396  56.401  14.4300  0.00  0.00     0.000 S
ENDBRANCH 42 49
BRANCH 45 54
ATOM     54 @CA  IDS B   3     -22.854  51.779  10.4070  0.00  0.00     0.000 C
ATOM     55   O  IDS B   3     -22.180  51.433   9.4750  0.00  0.00     0.000 OA
ATOM     56   O  IDS B   3     -23.876  51.203  10.5760  0.00  0.00     0.000 OA
ENDBRANCH 45 54
BRANCH 41 57
ATOM     57  O4  SGN B   4     -21.255  53.174  13.9260  0.00  0.00     0.000 O
BRANCH 57 61
ATOM     58  C1  SGN B   4     -19.187  51.419  17.0300  0.00  0.00     0.000 C
ATOM     59  C2  SGN B   4     -20.262  50.558  16.3890  0.00  0.00     0.000 C
ATOM     60  C3  SGN B   4     -20.665  51.152  15.0420  0.00  0.00     0.000 C
ATOM     61  C4  SGN B   4     -21.109  52.612  15.1930  0.00  0.00     0.000 C
ATOM     62  C5  SGN B   4     -20.002  53.364  15.9270  0.00  0.00     0.000 C
ATOM     63  O5  SGN B   4     -19.685  52.740  17.1570  0.00  0.00     0.000 O
ATOM     64   O  SGN B   4     -21.746  50.406  14.5210  0.00  0.00     0.000 O
ATOM     66  HD  SGN B   4     -22.481  50.841  14.3780  0.00  0.00     0.000 HD
BRANCH 59 68
ATOM     66   N  SGN B   4     -20.676  49.409  17.1670  0.00  0.00     0.000 N
ATOM     68  HD  SGN B   4     -20.497  50.244  17.3080  0.00  0.00     0.000 HD
ATOM     68 @NS  SGN B   4     -19.595  48.228  17.5260  0.00  0.00     0.000 S
ATOM     69   O  SGN B   4     -18.739  48.043  16.3920  0.00  0.00     0.000 OA
ATOM     70   O  SGN B   4     -18.859  48.694  18.6650  0.00  0.00     0.000 OA
ATOM     71   O  SGN B   4     -20.404  47.080  17.8020  0.00  0.00     0.000 OA
ENDBRANCH 59 68
BRANCH 62 72
ATOM     72   C  SGN B   4     -20.378  54.801  16.2510  0.00  0.00     0.000 C
ATOM     73   O  SGN B   4     -20.389  54.881  17.6460  0.00  0.00     0.000 O
ATOM     74  @S  SGN B   4     -20.048  56.102  18.5170  0.00  0.00     0.000 S
ATOM     75   O  SGN B   4     -20.929  57.146  18.1440  0.00  0.00     0.000 OA
ATOM     76   O  SGN B   4     -20.276  55.652  19.8570  0.00  0.00     0.000 OA
ATOM     77   O  SGN B   4     -18.696  56.431  18.2130  0.00  0.00     0.000 OA
ENDBRANCH 62 72
BRANCH 58 78
ATOM     78  O4  IDS B   5     -17.999  51.364  16.2670  0.00  0.00     0.000 O
BRANCH 78 82
ATOM     79  C1  IDS B   5     -14.816  51.347  14.9010  0.00  0.00     0.000 C
ATOM     80  C2  IDS B   5     -15.468  50.046  15.2560  0.00  0.00     0.000 C
ATOM     81  C3  IDS B   5     -16.043  50.009  16.6700  0.00  0.00     0.000 C
ATOM     82  C4  IDS B   5     -16.810  51.267  17.0210  0.00  0.00     0.000 C
ATOM     83  C5  IDS B   5     -15.936  52.435  16.6920  0.00  0.00     0.000 C
ATOM     84  O5  IDS B   5     -15.636  52.427  15.3090  0.00  0.00     0.000 O
ATOM     85   O  IDS B   5     -14.966  49.901  17.5690  0.00  0.00     0.000 O
ATOM     87  HD  IDS B   5     -15.604  50.486  17.5600  0.00  0.00     0.000 HD
BRANCH 80 87
ATOM     87   O  IDS B   5     -16.515  49.840  14.3930  0.00  0.00     0.000 O
ATOM     88  @S  IDS B   5     -16.648  48.721  13.3570  0.00  0.00     0.000 S
ATOM     89   O  IDS B   5     -16.440  47.520  14.0830  0.00  0.00     0.000 OA
ATOM     90   O  IDS B   5     -17.956  48.859  12.8180  0.00  0.00     0.000 OA
ATOM     91   O  IDS B   5     -15.642  48.965  12.3830  0.00  0.00     0.000 OA
ENDBRANCH 80 87
BRANCH 83 92
ATOM     92 @CA  IDS B   5     -16.495  53.772  17.1640  0.00  0.00     0.000 C
ATOM     93   O  IDS B   5     -16.759  53.965  18.3530  0.00  0.00     0.000 OA
ATOM     94   O  IDS B   5     -16.697  54.689  16.3590  0.00  0.00     0.000 OA
ENDBRANCH 83 92
BRANCH 79 95
ATOM     95  O4  SGN B   6     -13.551  51.403  15.4710  0.00  0.00     0.000 O
BRANCH 95 99
ATOM     96  C1  SGN B   6     -10.397  54.095  15.3320  0.00  0.00     0.000 C
ATOM     97  C2  SGN B   6     -11.482  54.392  16.3610  0.00  0.00     0.000 C
ATOM     98  C3  SGN B   6     -12.200  53.069  16.6320  0.00  0.00     0.000 C
ATOM     99  C4  SGN B   6     -12.885  52.642  15.3030  0.00  0.00     0.000 C
ATOM    100  C5  SGN B   6     -11.750  52.464  14.2540  0.00  0.00     0.000 C
ATOM    101  O5  SGN B   6     -10.976  53.653  14.1200  0.00  0.00     0.000 O
BRANCH 97 104
ATOM    102   N  SGN B   6     -10.768  55.008  17.4830  0.00  0.00     0.000 N
ATOM    104  HD  SGN B   6     -11.338  55.352  18.0370  0.00  0.00     0.000 HD
ATOM    104 @NS  SGN B   6     -10.902  56.651  17.6700  0.00  0.00     0.000 S
ATOM    105   O  SGN B   6     -11.783  57.141  16.6320  0.00  0.00     0.000 OA
ATOM    106   O  SGN B   6     -11.438  56.877  18.9920  0.00  0.00     0.000 OA
ATOM    107   O  SGN B   6      -9.566  57.182  17.5180  0.00  0.00     0.000 OA
ENDBRANCH 97 104
BRANCH 100 108
ATOM    108   C  SGN B   6     -12.192  52.090  12.8450  0.00  0.00     0.000 C
ATOM    109   O  SGN B   6     -13.225  52.952  12.4360  0.00  0.00     0.000 O
ATOM    110  @S  SGN B   6     -13.968  52.904  11.0510  0.00  0.00     0.000 S
ATOM    111   O  SGN B   6     -14.163  51.506  10.7530  0.00  0.00     0.000 OA
ATOM    112   O  SGN B   6     -15.228  53.606  11.2370  0.00  0.00     0.000 OA
ATOM    113   O  SGN B   6     -13.086  53.559  10.1110  0.00  0.00     0.000 OA
ENDBRANCH 100 108
ENDBRANCH 95 99
ENDBRANCH 79 95
ENDBRANCH 78 82
ENDBRANCH 58 78
ENDBRANCH 57 61
ENDBRANCH 41 57
ENDBRANCH 40 44
ENDBRANCH 20 40
ENDBRANCH 19 23
ENDBRANCH 1 19
TORSDOF 22
ENDMDL
MODEL 95
REMARK VINA RESULT:       5.4      3.029      9.684
ROOT
ATOM      1  C1  IDS B   1     -22.020  47.126  15.8620  0.00  0.00     0.000 C
ATOM      2  C2  IDS B   1     -23.144  46.251  15.3730  0.00  0.00     0.000 C
ATOM      3  C3  IDS B   1     -23.590  45.118  16.3280  0.00  0.00     0.000 C
ATOM      4  C4  IDS B   1     -23.346  45.440  17.8500  0.00  0.00     0.000 C
ATOM      5  C5  IDS B   1     -22.156  46.405  18.0720  0.00  0.00     0.000 C
ATOM      6  O5  IDS B   1     -22.256  47.502  17.2040  0.00  0.00     0.000 O
ATOM      7   O  IDS B   1     -22.893  43.938  15.9380  0.00  0.00     0.000 O
ATOM      9  HD  IDS B   1     -23.125  43.876  16.7700  0.00  0.00     0.000 HD
ATOM      9   O  IDS B   1     -24.509  46.063  18.3480  0.00  0.00     0.000 O
ATOM     11  HD  IDS B   1     -24.740  46.000  19.1800  0.00  0.00     0.000 HD
ENDROOT
BRANCH 2 11
ATOM     11   O  IDS B   1     -24.268  47.026  15.1330  0.00  0.00     0.000 O
ATOM     12  @S  IDS B   1     -25.024  47.073  13.7920  0.00  0.00     0.000 S
ATOM     13   O  IDS B   1     -24.014  46.727  12.8120  0.00  0.00     0.000 OA
ATOM     14   O  IDS B   1     -26.082  46.081  13.8750  0.00  0.00     0.000 OA
ATOM     15   O  IDS B   1     -25.529  48.426  13.6690  0.00  0.00     0.000 OA
ENDBRANCH 2 11
BRANCH 5 16
ATOM     16 @CA  IDS B   1     -21.934  46.896  19.5000  0.00  0.00     0.000 C
ATOM     17   O  IDS B   1     -21.441  47.997  19.7330  0.00  0.00     0.000 OA
ATOM     18   O  IDS B   1     -22.259  46.198  20.4570  0.00  0.00     0.000 OA
ENDBRANCH 5 16
BRANCH 1 19
ATOM     19  O4  SGN B   2     -20.817  46.397  15.7470  0.00  0.00     0.000 O
BRANCH 19 23
ATOM     20  C1  SGN B   2     -18.850  49.016  13.2920  0.00  0.00     0.000 C
ATOM     21  C2  SGN B   2     -19.451  47.766  12.6880  0.00  0.00     0.000 C
ATOM     22  C3  SGN B   2     -20.562  47.286  13.5510  0.00  0.00     0.000 C
ATOM     23  C4  SGN B   2     -19.898  46.926  14.8610  0.00  0.00     0.000 C
ATOM     24  C5  SGN B   2     -19.412  48.218  15.4210  0.00  0.00     0.000 C
ATOM     25  O5  SGN B   2     -18.412  48.721  14.6110  0.00  0.00     0.000 O
ATOM     26   O  SGN B   2     -21.140  46.166  12.9790  0.00  0.00     0.000 O
ATOM     28  HD  SGN B   2     -21.406  45.372  12.7590  0.00  0.00     0.000 HD
BRANCH 21 30
ATOM     28   N  SGN B   2     -19.327  48.630  11.5510  0.00  0.00     0.000 N
ATOM     30  HD  SGN B   2     -20.130  48.548  11.2360  0.00  0.00     0.000 HD
ATOM     30 @NS  SGN B   2     -18.737  47.972  10.1870  0.00  0.00     0.000 S
ATOM     31   O  SGN B   2     -18.596  46.566  10.3680  0.00  0.00     0.000 OA
ATOM     32   O  SGN B   2     -19.716  48.272   9.2250  0.00  0.00     0.000 OA
ATOM     33   O  SGN B   2     -17.483  48.586   9.9620  0.00  0.00     0.000 OA
ENDBRANCH 21 30
BRANCH 24 34
ATOM     34   C  SGN B   2     -18.855  48.146  16.7950  0.00  0.00     0.000 C
ATOM     35   O  SGN B   2     -18.277  49.371  17.0750  0.00  0.00     0.000 O
ATOM     36  @S  SGN B   2     -17.785  49.771  18.4610  0.00  0.00     0.000 S
ATOM     37   O  SGN B   2     -16.394  49.367  18.4760  0.00  0.00     0.000 OA
ATOM     38   O  SGN B   2     -17.975  51.199  18.5740  0.00  0.00     0.000 OA
ATOM     39   O  SGN B   2     -18.624  49.029  19.3920  0.00  0.00     0.000 OA
ENDBRANCH 24 34
BRANCH 20 40
ATOM     40  O4  IDS B   3     -19.778  50.057  13.2880  0.00  0.00     0.000 O
BRANCH 40 44
ATOM     41  C1  IDS B   3     -20.662  53.409  12.7530  0.00  0.00     0.000 C
ATOM     42  C2  IDS B   3     -19.420  52.818  12.0870  0.00  0.00     0.000 C
ATOM     43  C3  IDS B   3     -18.496  51.998  13.0080  0.00  0.00     0.000 C
ATOM     44  C4  IDS B   3     -19.303  51.162  13.9810  0.00  0.00     0.000 C
ATOM     45  C5  IDS B   3     -20.477  51.950  14.5840  0.00  0.00     0.000 C
ATOM     46  O5  IDS B   3     -21.290  52.443  13.5820  0.00  0.00     0.000 O
ATOM     47   O  IDS B   3     -17.678  52.877  13.7520  0.00  0.00     0.000 O
ATOM     49  HD  IDS B   3     -17.893  52.131  13.3670  0.00  0.00     0.000 HD
BRANCH 42 49
ATOM     49   O  IDS B   3     -19.831  51.969  11.0540  0.00  0.00     0.000 O
ATOM     50   O  IDS B   3     -19.394  53.632   9.4440  0.00  0.00     0.000 OA
ATOM     51   O  IDS B   3     -18.872  51.378   8.9430  0.00  0.00     0.000 OA
ATOM     52   O  IDS B   3     -21.122  52.066   9.1340  0.00  0.00     0.000 OA
ATOM     53  @S  IDS B   3     -19.798  52.279   9.5550  0.00  0.00     0.000 S
ENDBRANCH 42 49
BRANCH 45 54
ATOM     54 @CA  IDS B   3     -21.321  51.187  15.6030  0.00  0.00     0.000 C
ATOM     55   O  IDS B   3     -21.021  51.144  16.7650  0.00  0.00     0.000 OA
ATOM     56   O  IDS B   3     -22.318  50.628  15.2830  0.00  0.00     0.000 OA
ENDBRANCH 45 54
BRANCH 41 57
ATOM     57  O4  SGN B   4     -20.310  54.548  13.4660  0.00  0.00     0.000 O
BRANCH 57 61
ATOM     58  C1  SGN B   4     -23.277  56.781  11.6750  0.00  0.00     0.000 C
ATOM     59  C2  SGN B   4     -21.884  56.950  11.0900  0.00  0.00     0.000 C
ATOM     60  C3  SGN B   4     -20.984  55.811  11.5610  0.00  0.00     0.000 C
ATOM     61  C4  SGN B   4     -20.960  55.723  13.0910  0.00  0.00     0.000 C
ATOM     62  C5  SGN B   4     -22.404  55.649  13.5780  0.00  0.00     0.000 C
ATOM     63  O5  SGN B   4     -23.168  56.735  13.0870  0.00  0.00     0.000 O
ATOM     64   O  SGN B   4     -19.669  56.052  11.1040  0.00  0.00     0.000 O
ATOM     66  HD  SGN B   4     -19.059  56.131  11.7130  0.00  0.00     0.000 HD
BRANCH 59 68
ATOM     66   N  SGN B   4     -21.800  58.171  10.3150  0.00  0.00     0.000 N
ATOM     68  HD  SGN B   4     -22.207  57.894  11.0270  0.00  0.00     0.000 HD
ATOM     68 @NS  SGN B   4     -22.576  58.284   8.8740  0.00  0.00     0.000 S
ATOM     69   O  SGN B   4     -22.480  57.017   8.2110  0.00  0.00     0.000 OA
ATOM     70   O  SGN B   4     -23.939  58.610   9.1800  0.00  0.00     0.000 OA
ATOM     71   O  SGN B   4     -21.883  59.326   8.1800  0.00  0.00     0.000 OA
ENDBRANCH 59 68
BRANCH 62 72
ATOM     72   C  SGN B   4     -22.519  55.685  15.0950  0.00  0.00     0.000 C
ATOM     73   O  SGN B   4     -23.516  56.623  15.3730  0.00  0.00     0.000 O
ATOM     74  @S  SGN B   4     -24.496  56.624  16.5580  0.00  0.00     0.000 S
ATOM     75   O  SGN B   4     -23.724  56.636  17.7450  0.00  0.00     0.000 OA
ATOM     76   O  SGN B   4     -25.251  57.829  16.3890  0.00  0.00     0.000 OA
ATOM     77   O  SGN B   4     -25.249  55.420  16.4410  0.00  0.00     0.000 OA
ENDBRANCH 62 72
BRANCH 58 78
ATOM     78  O4  IDS B   5     -23.890  55.623  11.1460  0.00  0.00     0.000 O
BRANCH 78 82
ATOM     79  C1  IDS B   5     -26.678  53.607  10.7460  0.00  0.00     0.000 C
ATOM     80  C2  IDS B   5     -25.513  53.439   9.8180  0.00  0.00     0.000 C
ATOM     81  C3  IDS B   5     -25.022  54.746   9.2030  0.00  0.00     0.000 C
ATOM     82  C4  IDS B   5     -24.923  55.868  10.2160  0.00  0.00     0.000 C
ATOM     83  C5  IDS B   5     -26.226  55.930  10.9480  0.00  0.00     0.000 C
ATOM     84  O5  IDS B   5     -26.453  54.703  11.6140  0.00  0.00     0.000 O
ATOM     85   O  IDS B   5     -25.953  55.136   8.2230  0.00  0.00     0.000 O
ATOM     87  HD  IDS B   5     -25.652  55.594   8.8930  0.00  0.00     0.000 HD
BRANCH 80 87
ATOM     87   O  IDS B   5     -24.466  52.915  10.5350  0.00  0.00     0.000 O
ATOM     88  @S  IDS B   5     -24.224  51.441  10.8690  0.00  0.00     0.000 S
ATOM     89   O  IDS B   5     -24.279  50.767   9.6220  0.00  0.00     0.000 OA
ATOM     90   O  IDS B   5     -22.951  51.400  11.4990  0.00  0.00     0.000 OA
ATOM     91   O  IDS B   5     -25.270  51.062  11.7540  0.00  0.00     0.000 OA
ENDBRANCH 80 87
BRANCH 83 92
ATOM     92 @CA  IDS B   5     -26.351  57.133  11.8750  0.00  0.00     0.000 C
ATOM     93   O  IDS B   5     -26.436  56.987  13.0970  0.00  0.00     0.000 OA
ATOM     94   O  IDS B   5     -26.376  58.282  11.4160  0.00  0.00     0.000 OA
ENDBRANCH 83 92
BRANCH 79 95
ATOM     95  O4  SGN B   6     -27.843  53.754  10.0050  0.00  0.00     0.000 O
BRANCH 95 99
ATOM     96  C1  SGN B   6     -31.905  53.240  10.6750  0.00  0.00     0.000 C
ATOM     97  C2  SGN B   6     -31.225  54.323  11.5040  0.00  0.00     0.000 C
ATOM     98  C3  SGN B   6     -29.957  54.720  10.7470  0.00  0.00     0.000 C
ATOM     99  C4  SGN B   6     -29.033  53.468  10.7180  0.00  0.00     0.000 C
ATOM    100  C5  SGN B   6     -29.816  52.355   9.9650  0.00  0.00     0.000 C
ATOM    101  O5  SGN B   6     -31.075  52.099  10.5800  0.00  0.00     0.000 O
BRANCH 97 104
ATOM    102   N  SGN B   6     -32.515  54.197  12.1890  0.00  0.00     0.000 N
ATOM    104  HD  SGN B   6     -33.060  54.803  11.8970  0.00  0.00     0.000 HD
ATOM    104 @NS  SGN B   6     -32.998  55.456  13.1560  0.00  0.00     0.000 S
ATOM    105   O  SGN B   6     -31.984  56.484  13.0760  0.00  0.00     0.000 OA
ATOM    106   O  SGN B   6     -34.273  55.905  12.6470  0.00  0.00     0.000 OA
ATOM    107   O  SGN B   6     -33.096  54.917  14.4940  0.00  0.00     0.000 OA
ENDBRANCH 97 104
BRANCH 100 108
ATOM    108   C  SGN B   6     -29.120  51.004   9.8540  0.00  0.00     0.000 C
ATOM    109   O  SGN B   6     -29.477  50.204  10.9540  0.00  0.00     0.000 O
ATOM    110  @S  SGN B   6     -28.975  48.740  11.2270  0.00  0.00     0.000 S
ATOM    111   O  SGN B   6     -27.576  48.727  10.8700  0.00  0.00     0.000 OA
ATOM    112   O  SGN B   6     -29.180  48.493  12.6460  0.00  0.00     0.000 OA
ATOM    113   O  SGN B   6     -29.776  47.886  10.3790  0.00  0.00     0.000 OA
ENDBRANCH 100 108
ENDBRANCH 95 99
ENDBRANCH 79 95
ENDBRANCH 78 82
ENDBRANCH 58 78
ENDBRANCH 57 61
ENDBRANCH 41 57
ENDBRANCH 40 44
ENDBRANCH 20 40
ENDBRANCH 19 23
ENDBRANCH 1 19
TORSDOF 22
ENDMDL
MODEL 96
REMARK VINA RESULT:       5.8      2.519      7.984
ROOT
ATOM      1  C1  IDS B   1     -28.307  51.824  10.5660  0.00  0.00     0.000 C
ATOM      2  C2  IDS B   1     -29.203  52.705  11.3970  0.00  0.00     0.000 C
ATOM      3  C3  IDS B   1     -28.835  54.208  11.4350  0.00  0.00     0.000 C
ATOM      4  C4  IDS B   1     -28.088  54.709  10.1420  0.00  0.00     0.000 C
ATOM      5  C5  IDS B   1     -27.275  53.588   9.4500  0.00  0.00     0.000 C
ATOM      6  O5  IDS B   1     -28.062  52.435   9.3160  0.00  0.00     0.000 O
ATOM      7   O  IDS B   1     -28.040  54.419  12.5980  0.00  0.00     0.000 O
ATOM      9  HD  IDS B   1     -27.870  55.037  12.0150  0.00  0.00     0.000 HD
ATOM      9   O  IDS B   1     -29.065  55.163   9.2320  0.00  0.00     0.000 O
ATOM     11  HD  IDS B   1     -28.895  55.781   8.6500  0.00  0.00     0.000 HD
ENDROOT
BRANCH 2 11
ATOM     11   O  IDS B   1     -30.502  52.632  10.9190  0.00  0.00     0.000 O
ATOM     12  @S  IDS B   1     -31.742  52.387  11.8010  0.00  0.00     0.000 S
ATOM     13   O  IDS B   1     -31.220  51.658  12.9390  0.00  0.00     0.000 OA
ATOM     14   O  IDS B   1     -32.258  53.695  12.1650  0.00  0.00     0.000 OA
ATOM     15   O  IDS B   1     -32.665  51.626  10.9820  0.00  0.00     0.000 OA
ENDBRANCH 2 11
BRANCH 5 16
ATOM     16 @CA  IDS B   1     -26.639  53.937   8.1080  0.00  0.00     0.000 C
ATOM     17   O  IDS B   1     -26.290  55.084   7.8390  0.00  0.00     0.000 OA
ATOM     18   O  IDS B   1     -26.448  53.065   7.2630  0.00  0.00     0.000 OA
ENDBRANCH 5 16
BRANCH 1 19
ATOM     19  O4  SGN B   2     -27.102  51.631  11.2770  0.00  0.00     0.000 O
BRANCH 19 23
ATOM     20  C1  SGN B   2     -25.706  48.389  13.3490  0.00  0.00     0.000 C
ATOM     21  C2  SGN B   2     -26.645  48.158  12.1850  0.00  0.00     0.000 C
ATOM     22  C3  SGN B   2     -26.564  49.310  11.2500  0.00  0.00     0.000 C
ATOM     23  C4  SGN B   2     -27.062  50.489  12.0540  0.00  0.00     0.000 C
ATOM     24  C5  SGN B   2     -26.041  50.695  13.1190  0.00  0.00     0.000 C
ATOM     25  O5  SGN B   2     -26.052  49.614  13.9800  0.00  0.00     0.000 O
ATOM     26   O  SGN B   2     -27.392  49.082  10.1640  0.00  0.00     0.000 O
ATOM     28  HD  SGN B   2     -28.024  49.068   9.5720  0.00  0.00     0.000 HD
BRANCH 21 30
ATOM     28   N  SGN B   2     -26.180  46.897  11.6860  0.00  0.00     0.000 N
ATOM     30  HD  SGN B   2     -26.651  46.862  10.9600  0.00  0.00     0.000 HD
ATOM     30 @NS  SGN B   2     -26.939  45.566  12.2280  0.00  0.00     0.000 S
ATOM     31   O  SGN B   2     -28.063  45.954  13.0130  0.00  0.00     0.000 OA
ATOM     32   O  SGN B   2     -27.334  44.909  11.0510  0.00  0.00     0.000 OA
ATOM     33   O  SGN B   2     -25.992  44.860  13.0070  0.00  0.00     0.000 OA
ENDBRANCH 21 30
BRANCH 24 34
ATOM     34   C  SGN B   2     -26.228  51.908  13.9540  0.00  0.00     0.000 C
ATOM     35   O  SGN B   2     -25.798  51.605  15.2330  0.00  0.00     0.000 O
ATOM     36  @S  SGN B   2     -25.627  52.648  16.3310  0.00  0.00     0.000 S
ATOM     37   O  SGN B   2     -26.907  52.663  17.0110  0.00  0.00     0.000 OA
ATOM     38   O  SGN B   2     -24.535  52.200  17.1640  0.00  0.00     0.000 OA
ATOM     39   O  SGN B   2     -25.316  53.888  15.6350  0.00  0.00     0.000 OA
ENDBRANCH 24 34
BRANCH 20 40
ATOM     40  O4  IDS B   3     -24.381  48.400  12.9130  0.00  0.00     0.000 O
BRANCH 40 44
ATOM     41  C1  IDS B   3     -21.010  47.497  12.5590  0.00  0.00     0.000 C
ATOM     42  C2  IDS B   3     -22.101  46.429  12.5790  0.00  0.00     0.000 C
ATOM     43  C3  IDS B   3     -23.150  46.567  13.6990  0.00  0.00     0.000 C
ATOM     44  C4  IDS B   3     -23.511  48.021  13.9270  0.00  0.00     0.000 C
ATOM     45  C5  IDS B   3     -22.273  48.931  13.9260  0.00  0.00     0.000 C
ATOM     46  O5  IDS B   3     -21.573  48.788  12.7440  0.00  0.00     0.000 O
ATOM     47   O  IDS B   3     -22.622  46.048  14.9010  0.00  0.00     0.000 O
ATOM     49  HD  IDS B   3     -23.245  46.271  14.3420  0.00  0.00     0.000 HD
BRANCH 42 49
ATOM     49   O  IDS B   3     -22.789  46.474  11.3610  0.00  0.00     0.000 O
ATOM     50   O  IDS B   3     -21.869  44.407  10.7060  0.00  0.00     0.000 OA
ATOM     51   O  IDS B   3     -24.128  44.881  10.1790  0.00  0.00     0.000 OA
ATOM     52   O  IDS B   3     -22.383  46.066   9.1190  0.00  0.00     0.000 OA
ATOM     53  @S  IDS B   3     -22.796  45.390  10.2800  0.00  0.00     0.000 S
ENDBRANCH 42 49
BRANCH 45 54
ATOM     54 @CA  IDS B   3     -22.549  50.411  14.1840  0.00  0.00     0.000 C
ATOM     55   O  IDS B   3     -22.828  51.165  13.2920  0.00  0.00     0.000 OA
ATOM     56   O  IDS B   3     -22.518  50.861  15.2810  0.00  0.00     0.000 OA
ENDBRANCH 45 54
BRANCH 41 57
ATOM     57  O4  SGN B   4     -20.058  47.209  13.5300  0.00  0.00     0.000 O
BRANCH 57 61
ATOM     58  C1  SGN B   4     -17.416  50.279  12.7630  0.00  0.00     0.000 C
ATOM     59  C2  SGN B   4     -17.466  49.180  11.7150  0.00  0.00     0.000 C
ATOM     60  C3  SGN B   4     -18.724  48.338  11.9090  0.00  0.00     0.000 C
ATOM     61  C4  SGN B   4     -18.801  47.780  13.3350  0.00  0.00     0.000 C
ATOM     62  C5  SGN B   4     -18.650  48.950  14.3030  0.00  0.00     0.000 C
ATOM     63  O5  SGN B   4     -17.465  49.680  14.0460  0.00  0.00     0.000 O
ATOM     64   O  SGN B   4     -18.690  47.254  11.0040  0.00  0.00     0.000 O
ATOM     66  HD  SGN B   4     -18.699  46.461  11.3520  0.00  0.00     0.000 HD
BRANCH 59 68
ATOM     66   N  SGN B   4     -16.225  49.288  10.9770  0.00  0.00     0.000 N
ATOM     68  HD  SGN B   4     -16.517  49.490  11.7660  0.00  0.00     0.000 HD
ATOM     68 @NS  SGN B   4     -16.062  50.426   9.8070  0.00  0.00     0.000 S
ATOM     69   O  SGN B   4     -17.311  50.538   9.1120  0.00  0.00     0.000 OA
ATOM     70   O  SGN B   4     -15.730  51.647  10.4820  0.00  0.00     0.000 OA
ATOM     71   O  SGN B   4     -15.008  49.930   8.9740  0.00  0.00     0.000 OA
ENDBRANCH 59 68
BRANCH 62 72
ATOM     72   C  SGN B   4     -18.584  48.508  15.7580  0.00  0.00     0.000 C
ATOM     73   O  SGN B   4     -19.780  48.938  16.3350  0.00  0.00     0.000 O
ATOM     74  @S  SGN B   4     -20.559  48.270  17.4810  0.00  0.00     0.000 S
ATOM     75   O  SGN B   4     -19.690  48.198  18.5970  0.00  0.00     0.000 OA
ATOM     76   O  SGN B   4     -21.666  49.149  17.7120  0.00  0.00     0.000 OA
ATOM     77   O  SGN B   4     -20.909  46.973  17.0100  0.00  0.00     0.000 OA
ENDBRANCH 62 72
BRANCH 58 78
ATOM     78  O4  IDS B   5     -18.472  51.196  12.5570  0.00  0.00     0.000 O
BRANCH 78 82
ATOM     79  C1  IDS B   5     -20.717  53.832  12.4720  0.00  0.00     0.000 C
ATOM     80  C2  IDS B   5     -19.995  53.443  11.2170  0.00  0.00     0.000 C
ATOM     81  C3  IDS B   5     -18.485  53.309  11.3910  0.00  0.00     0.000 C
ATOM     82  C4  IDS B   5     -18.106  52.556  12.6500  0.00  0.00     0.000 C
ATOM     83  C5  IDS B   5     -18.851  53.178  13.7880  0.00  0.00     0.000 C
ATOM     84  O5  IDS B   5     -20.243  53.063  13.5620  0.00  0.00     0.000 O
ATOM     85   O  IDS B   5     -17.947  54.605  11.4910  0.00  0.00     0.000 O
ATOM     87  HD  IDS B   5     -17.848  53.937  12.0330  0.00  0.00     0.000 HD
BRANCH 80 87
ATOM     87   O  IDS B   5     -20.463  52.217  10.8160  0.00  0.00     0.000 O
ATOM     88  @S  IDS B   5     -21.350  51.920   9.6040  0.00  0.00     0.000 S
ATOM     89   O  IDS B   5     -20.680  52.512   8.5030  0.00  0.00     0.000 OA
ATOM     90   O  IDS B   5     -21.440  50.504   9.5400  0.00  0.00     0.000 OA
ATOM     91   O  IDS B   5     -22.607  52.523   9.8810  0.00  0.00     0.000 OA
ENDBRANCH 80 87
BRANCH 83 92
ATOM     92 @CA  IDS B   5     -18.433  52.651  15.1560  0.00  0.00     0.000 C
ATOM     93   O  IDS B   5     -19.258  52.144  15.9200  0.00  0.00     0.000 OA
ATOM     94   O  IDS B   5     -17.255  52.727  15.5270  0.00  0.00     0.000 OA
ENDBRANCH 83 92
BRANCH 79 95
ATOM     95  O4  SGN B   6     -20.570  55.196  12.6870  0.00  0.00     0.000 O
BRANCH 95 99
ATOM     96  C1  SGN B   6     -24.632  55.908  12.2360  0.00  0.00     0.000 C
ATOM     97  C2  SGN B   6     -23.720  56.590  11.2240  0.00  0.00     0.000 C
ATOM     98  C3  SGN B   6     -22.415  55.794  11.2070  0.00  0.00     0.000 C
ATOM     99  C4  SGN B   6     -21.776  55.935  12.6180  0.00  0.00     0.000 C
ATOM    100  C5  SGN B   6     -22.794  55.332  13.6290  0.00  0.00     0.000 C
ATOM    101  O5  SGN B   6     -24.064  55.969  13.5300  0.00  0.00     0.000 O
BRANCH 97 104
ATOM    102   N  SGN B   6     -24.602  56.600  10.0530  0.00  0.00     0.000 N
ATOM    104  HD  SGN B   6     -24.220  57.027   9.4040  0.00  0.00     0.000 HD
ATOM    104 @NS  SGN B   6     -25.176  58.068   9.5350  0.00  0.00     0.000 S
ATOM    105   O  SGN B   6     -24.611  59.087  10.3930  0.00  0.00     0.000 OA
ATOM    106   O  SGN B   6     -24.756  58.217   8.1610  0.00  0.00     0.000 OA
ATOM    107   O  SGN B   6     -26.614  58.005   9.6700  0.00  0.00     0.000 OA
ENDBRANCH 97 104
BRANCH 100 108
ATOM    108   C  SGN B   6     -22.401  55.405  15.0990  0.00  0.00     0.000 C
ATOM    109   O  SGN B   6     -21.069  55.843  15.2050  0.00  0.00     0.000 O
ATOM    110  @S  SGN B   6     -20.273  56.049  16.5450  0.00  0.00     0.000 S
ATOM    111   O  SGN B   6     -20.639  54.943  17.3970  0.00  0.00     0.000 OA
ATOM    112   O  SGN B   6     -18.862  56.024  16.1920  0.00  0.00     0.000 OA
ATOM    113   O  SGN B   6     -20.707  57.325  17.0660  0.00  0.00     0.000 OA
ENDBRANCH 100 108
ENDBRANCH 95 99
ENDBRANCH 79 95
ENDBRANCH 78 82
ENDBRANCH 58 78
ENDBRANCH 57 61
ENDBRANCH 41 57
ENDBRANCH 40 44
ENDBRANCH 20 40
ENDBRANCH 19 23
ENDBRANCH 1 19
TORSDOF 22
ENDMDL
MODEL 97
REMARK VINA RESULT:       6.1      2.649      8.117
ROOT
ATOM      1  C1  IDS B   1     -28.177  51.482  10.4210  0.00  0.00     0.000 C
ATOM      2  C2  IDS B   1     -29.059  52.346  11.2830  0.00  0.00     0.000 C
ATOM      3  C3  IDS B   1     -28.590  53.807  11.4870  0.00  0.00     0.000 C
ATOM      4  C4  IDS B   1     -27.732  54.368  10.2930  0.00  0.00     0.000 C
ATOM      5  C5  IDS B   1     -26.957  53.259   9.5410  0.00  0.00     0.000 C
ATOM      6  O5  IDS B   1     -27.812  52.186   9.2520  0.00  0.00     0.000 O
ATOM      7   O  IDS B   1     -27.857  53.848  12.7080  0.00  0.00     0.000 O
ATOM      9  HD  IDS B   1     -27.608  54.503  12.1980  0.00  0.00     0.000 HD
ATOM      9   O  IDS B   1     -28.616  54.977   9.3790  0.00  0.00     0.000 O
ATOM     11  HD  IDS B   1     -28.367  55.632   8.8690  0.00  0.00     0.000 HD
ENDROOT
BRANCH 2 11
ATOM     11   O  IDS B   1     -30.327  52.415  10.7300  0.00  0.00     0.000 O
ATOM     12  @S  IDS B   1     -31.583  52.893  11.4850  0.00  0.00     0.000 S
ATOM     13   O  IDS B   1     -31.284  52.605  12.8730  0.00  0.00     0.000 OA
ATOM     14   O  IDS B   1     -31.708  54.317  11.2250  0.00  0.00     0.000 OA
ATOM     15   O  IDS B   1     -32.686  52.124  10.9440  0.00  0.00     0.000 OA
ENDBRANCH 2 11
BRANCH 5 16
ATOM     16 @CA  IDS B   1     -26.215  53.682   8.2770  0.00  0.00     0.000 C
ATOM     17   O  IDS B   1     -25.281  54.479   8.3140  0.00  0.00     0.000 OA
ATOM     18   O  IDS B   1     -26.532  53.219   7.1840  0.00  0.00     0.000 OA
ENDBRANCH 5 16
BRANCH 1 19
ATOM     19  O4  SGN B   2     -27.034  51.133  11.1760  0.00  0.00     0.000 O
BRANCH 19 23
ATOM     20  C1  SGN B   2     -26.208  47.938  13.5970  0.00  0.00     0.000 C
ATOM     21  C2  SGN B   2     -26.966  47.697  12.3100  0.00  0.00     0.000 C
ATOM     22  C3  SGN B   2     -26.660  48.786  11.3460  0.00  0.00     0.000 C
ATOM     23  C4  SGN B   2     -27.196  50.038  12.0030  0.00  0.00     0.000 C
ATOM     24  C5  SGN B   2     -26.343  50.243  13.2070  0.00  0.00     0.000 C
ATOM     25  O5  SGN B   2     -26.563  49.216  14.1050  0.00  0.00     0.000 O
ATOM     26   O  SGN B   2     -27.321  48.546  10.1540  0.00  0.00     0.000 O
ATOM     28  HD  SGN B   2     -27.851  48.536   9.4690  0.00  0.00     0.000 HD
BRANCH 21 30
ATOM     28   N  SGN B   2     -27.646  46.641  13.0010  0.00  0.00     0.000 N
ATOM     30  HD  SGN B   2     -27.055  46.484  13.6140  0.00  0.00     0.000 HD
ATOM     30 @NS  SGN B   2     -27.441  45.134  12.4290  0.00  0.00     0.000 S
ATOM     31   O  SGN B   2     -26.459  45.155  11.3970  0.00  0.00     0.000 OA
ATOM     32   O  SGN B   2     -26.996  44.414  13.5500  0.00  0.00     0.000 OA
ATOM     33   O  SGN B   2     -28.699  44.726  11.9290  0.00  0.00     0.000 OA
ENDBRANCH 21 30
BRANCH 24 34
ATOM     34   C  SGN B   2     -26.575  51.511  13.9420  0.00  0.00     0.000 C
ATOM     35   O  SGN B   2     -25.807  51.473  15.0920  0.00  0.00     0.000 O
ATOM     36  @S  SGN B   2     -25.603  52.676  16.0060  0.00  0.00     0.000 S
ATOM     37   O  SGN B   2     -26.666  52.565  16.9850  0.00  0.00     0.000 OA
ATOM     38   O  SGN B   2     -24.280  52.548  16.5720  0.00  0.00     0.000 OA
ATOM     39   O  SGN B   2     -25.721  53.839  15.1380  0.00  0.00     0.000 OA
ENDBRANCH 24 34
BRANCH 20 40
ATOM     40  O4  IDS B   3     -24.833  47.844  13.3800  0.00  0.00     0.000 O
BRANCH 40 44
ATOM     41  C1  IDS B   3     -21.517  46.701  13.3760  0.00  0.00     0.000 C
ATOM     42  C2  IDS B   3     -22.644  45.812  12.8540  0.00  0.00     0.000 C
ATOM     43  C3  IDS B   3     -23.896  45.728  13.7500  0.00  0.00     0.000 C
ATOM     44  C4  IDS B   3     -24.217  47.078  14.3600  0.00  0.00     0.000 C
ATOM     45  C5  IDS B   3     -22.958  47.794  14.8750  0.00  0.00     0.000 C
ATOM     46  O5  IDS B   3     -22.035  47.932  13.8570  0.00  0.00     0.000 O
ATOM     47   O  IDS B   3     -23.660  44.812  14.7990  0.00  0.00     0.000 O
ATOM     49  HD  IDS B   3     -24.139  45.265  14.2370  0.00  0.00     0.000 HD
BRANCH 42 49
ATOM     49   O  IDS B   3     -23.059  46.302  11.6120  0.00  0.00     0.000 O
ATOM     50   O  IDS B   3     -21.571  44.862  10.4900  0.00  0.00     0.000 OA
ATOM     51   O  IDS B   3     -23.720  45.240   9.5720  0.00  0.00     0.000 OA
ATOM     52   O  IDS B   3     -22.117  46.972   9.6060  0.00  0.00     0.000 OA
ATOM     53  @S  IDS B   3     -22.592  45.811  10.2390  0.00  0.00     0.000 S
ENDBRANCH 42 49
BRANCH 45 54
ATOM     54 @CA  IDS B   3     -23.201  49.148  15.5370  0.00  0.00     0.000 C
ATOM     55   O  IDS B   3     -22.726  50.159  15.0960  0.00  0.00     0.000 OA
ATOM     56   O  IDS B   3     -23.888  49.250  16.4990  0.00  0.00     0.000 OA
ENDBRANCH 45 54
BRANCH 41 57
ATOM     57  O4  SGN B   4     -20.807  46.023  14.3590  0.00  0.00     0.000 O
BRANCH 57 61
ATOM     58  C1  SGN B   4     -17.395  48.325  14.1210  0.00  0.00     0.000 C
ATOM     59  C2  SGN B   4     -17.547  47.264  13.0450  0.00  0.00     0.000 C
ATOM     60  C3  SGN B   4     -18.989  46.766  13.0080  0.00  0.00     0.000 C
ATOM     61  C4  SGN B   4     -19.433  46.259  14.3850  0.00  0.00     0.000 C
ATOM     62  C5  SGN B   4     -19.154  47.362  15.4030  0.00  0.00     0.000 C
ATOM     63  O5  SGN B   4     -17.799  47.770  15.3610  0.00  0.00     0.000 O
ATOM     64   O  SGN B   4     -19.079  45.700  12.0860  0.00  0.00     0.000 O
ATOM     66  HD  SGN B   4     -19.342  44.938  12.4040  0.00  0.00     0.000 HD
BRANCH 59 68
ATOM     66   N  SGN B   4     -16.229  47.851  12.9130  0.00  0.00     0.000 N
ATOM     68  HD  SGN B   4     -17.029  48.117  13.1100  0.00  0.00     0.000 HD
ATOM     68 @NS  SGN B   4     -15.586  48.099  11.4250  0.00  0.00     0.000 S
ATOM     69   O  SGN B   4     -15.956  46.998  10.5860  0.00  0.00     0.000 OA
ATOM     70   O  SGN B   4     -16.147  49.330  10.9480  0.00  0.00     0.000 OA
ATOM     71   O  SGN B   4     -14.175  48.169  11.6560  0.00  0.00     0.000 OA
ENDBRANCH 59 68
BRANCH 62 72
ATOM     72   C  SGN B   4     -19.437  46.932  16.8340  0.00  0.00     0.000 C
ATOM     73   O  SGN B   4     -18.259  47.185  17.5410  0.00  0.00     0.000 O
ATOM     74  @S  SGN B   4     -18.123  47.581  19.0210  0.00  0.00     0.000 S
ATOM     75   O  SGN B   4     -18.727  46.556  19.7900  0.00  0.00     0.000 OA
ATOM     76   O  SGN B   4     -16.709  47.658  19.2350  0.00  0.00     0.000 OA
ATOM     77   O  SGN B   4     -18.821  48.814  19.1600  0.00  0.00     0.000 OA
ENDBRANCH 62 72
BRANCH 58 78
ATOM     78  O4  IDS B   5     -18.141  49.476  13.7800  0.00  0.00     0.000 O
BRANCH 78 82
ATOM     79  C1  IDS B   5     -19.561  52.586  13.2270  0.00  0.00     0.000 C
ATOM     80  C2  IDS B   5     -18.652  52.001  12.1900  0.00  0.00     0.000 C
ATOM     81  C3  IDS B   5     -17.323  51.498  12.7480  0.00  0.00     0.000 C
ATOM     82  C4  IDS B   5     -17.490  50.703  14.0270  0.00  0.00     0.000 C
ATOM     83  C5  IDS B   5     -18.333  51.516  14.9570  0.00  0.00     0.000 C
ATOM     84  O5  IDS B   5     -19.599  51.747  14.3680  0.00  0.00     0.000 O
ATOM     85   O  IDS B   5     -16.529  52.622  13.0450  0.00  0.00     0.000 O
ATOM     87  HD  IDS B   5     -16.745  51.962  13.5630  0.00  0.00     0.000 HD
BRANCH 80 87
ATOM     87   O  IDS B   5     -19.282  50.921  11.6240  0.00  0.00     0.000 O
ATOM     88  @S  IDS B   5     -19.750  50.783  10.1730  0.00  0.00     0.000 S
ATOM     89   O  IDS B   5     -18.606  51.079   9.3880  0.00  0.00     0.000 OA
ATOM     90   O  IDS B   5     -20.211  49.445  10.0510  0.00  0.00     0.000 OA
ATOM     91   O  IDS B   5     -20.799  51.727  10.0070  0.00  0.00     0.000 OA
ENDBRANCH 80 87
BRANCH 83 92
ATOM     92 @CA  IDS B   5     -18.437  50.932  16.3600  0.00  0.00     0.000 C
ATOM     93   O  IDS B   5     -17.425  50.670  17.0150  0.00  0.00     0.000 OA
ATOM     94   O  IDS B   5     -19.542  50.706  16.8680  0.00  0.00     0.000 OA
ENDBRANCH 83 92
BRANCH 79 95
ATOM     95  O4  SGN B   6     -19.146  53.875  13.5350  0.00  0.00     0.000 O
BRANCH 95 99
ATOM     96  C1  SGN B   6     -22.812  55.338  14.8110  0.00  0.00     0.000 C
ATOM     97  C2  SGN B   6     -22.588  55.326  13.3040  0.00  0.00     0.000 C
ATOM     98  C3  SGN B   6     -21.497  54.290  13.0330  0.00  0.00     0.000 C
ATOM     99  C4  SGN B   6     -20.199  54.803  13.7210  0.00  0.00     0.000 C
ATOM    100  C5  SGN B   6     -20.514  54.909  15.2410  0.00  0.00     0.000 C
ATOM    101  O5  SGN B   6     -21.638  55.751  15.4810  0.00  0.00     0.000 O
BRANCH 97 104
ATOM    102   N  SGN B   6     -23.237  56.529  12.7730  0.00  0.00     0.000 N
ATOM    104  HD  SGN B   6     -23.968  56.682  13.2110  0.00  0.00     0.000 HD
ATOM    104 @NS  SGN B   6     -24.722  56.347  12.0560  0.00  0.00     0.000 S
ATOM    105   O  SGN B   6     -25.088  54.950  12.1510  0.00  0.00     0.000 OA
ATOM    106   O  SGN B   6     -25.639  57.201  12.7760  0.00  0.00     0.000 OA
ATOM    107   O  SGN B   6     -24.554  56.754  10.6790  0.00  0.00     0.000 OA
ENDBRANCH 97 104
BRANCH 100 108
ATOM    108   C  SGN B   6     -19.392  55.445  16.1210  0.00  0.00     0.000 C
ATOM    109   O  SGN B   6     -19.808  55.436  17.4640  0.00  0.00     0.000 O
ATOM    110  @S  SGN B   6     -18.954  55.914  18.6950  0.00  0.00     0.000 S
ATOM    111   O  SGN B   6     -18.264  57.104  18.2600  0.00  0.00     0.000 OA
ATOM    112   O  SGN B   6     -19.897  56.188  19.7670  0.00  0.00     0.000 OA
ATOM    113   O  SGN B   6     -18.053  54.823  18.9930  0.00  0.00     0.000 OA
ENDBRANCH 100 108
ENDBRANCH 95 99
ENDBRANCH 79 95
ENDBRANCH 78 82
ENDBRANCH 58 78
ENDBRANCH 57 61
ENDBRANCH 41 57
ENDBRANCH 40 44
ENDBRANCH 20 40
ENDBRANCH 19 23
ENDBRANCH 1 19
TORSDOF 22
ENDMDL
MODEL 98
REMARK VINA RESULT:       6.1      2.783      8.510
ROOT
ATOM      1  C1  IDS B   1     -27.986  51.687  10.6140  0.00  0.00     0.000 C
ATOM      2  C2  IDS B   1     -28.906  52.542  11.4450  0.00  0.00     0.000 C
ATOM      3  C3  IDS B   1     -28.465  54.010  11.6570  0.00  0.00     0.000 C
ATOM      4  C4  IDS B   1     -27.580  54.580  10.4860  0.00  0.00     0.000 C
ATOM      5  C5  IDS B   1     -26.767  53.480   9.7630  0.00  0.00     0.000 C
ATOM      6  O5  IDS B   1     -27.596  52.393   9.4530  0.00  0.00     0.000 O
ATOM      7   O  IDS B   1     -27.770  54.067  12.8980  0.00  0.00     0.000 O
ATOM      9  HD  IDS B   1     -27.516  54.724  12.3940  0.00  0.00     0.000 HD
ATOM      9   O  IDS B   1     -28.445  55.172   9.5430  0.00  0.00     0.000 O
ATOM     11  HD  IDS B   1     -28.191  55.829   9.0390  0.00  0.00     0.000 HD
ENDROOT
BRANCH 2 11
ATOM     11   O  IDS B   1     -30.158  52.590  10.8530  0.00  0.00     0.000 O
ATOM     12  @S  IDS B   1     -31.473  52.210  11.5630  0.00  0.00     0.000 S
ATOM     13   O  IDS B   1     -31.057  51.266  12.5810  0.00  0.00     0.000 OA
ATOM     14   O  IDS B   1     -32.011  53.435  12.1250  0.00  0.00     0.000 OA
ATOM     15   O  IDS B   1     -32.324  51.639  10.5380  0.00  0.00     0.000 OA
ENDBRANCH 2 11
BRANCH 5 16
ATOM     16 @CA  IDS B   1     -25.994  53.909   8.5190  0.00  0.00     0.000 C
ATOM     17   O  IDS B   1     -26.455  53.759   7.3900  0.00  0.00     0.000 OA
ATOM     18   O  IDS B   1     -24.887  54.432   8.6230  0.00  0.00     0.000 OA
ENDBRANCH 5 16
BRANCH 1 19
ATOM     19  O4  SGN B   2     -26.862  51.359  11.4040  0.00  0.00     0.000 O
BRANCH 19 23
ATOM     20  C1  SGN B   2     -26.445  48.431  14.2340  0.00  0.00     0.000 C
ATOM     21  C2  SGN B   2     -27.563  48.310  13.2220  0.00  0.00     0.000 C
ATOM     22  C3  SGN B   2     -27.209  49.079  12.0010  0.00  0.00     0.000 C
ATOM     23  C4  SGN B   2     -27.124  50.514  12.4660  0.00  0.00     0.000 C
ATOM     24  C5  SGN B   2     -25.954  50.558  13.3860  0.00  0.00     0.000 C
ATOM     25  O5  SGN B   2     -26.228  49.807  14.5130  0.00  0.00     0.000 O
ATOM     26   O  SGN B   2     -28.213  48.935  11.0580  0.00  0.00     0.000 O
ATOM     28  HD  SGN B   2     -28.886  49.025  10.5210  0.00  0.00     0.000 HD
BRANCH 21 30
ATOM     28   N  SGN B   2     -27.743  47.359  14.2800  0.00  0.00     0.000 N
ATOM     30  HD  SGN B   2     -27.074  46.838  14.1020  0.00  0.00     0.000 HD
ATOM     30 @NS  SGN B   2     -28.764  46.127  13.9980  0.00  0.00     0.000 S
ATOM     31   O  SGN B   2     -29.179  46.165  12.6360  0.00  0.00     0.000 OA
ATOM     32   O  SGN B   2     -27.990  44.987  14.2690  0.00  0.00     0.000 OA
ATOM     33   O  SGN B   2     -29.861  46.315  14.8710  0.00  0.00     0.000 OA
ENDBRANCH 21 30
BRANCH 24 34
ATOM     34   C  SGN B   2     -25.565  51.911  13.8570  0.00  0.00     0.000 C
ATOM     35   O  SGN B   2     -24.560  52.369  13.0250  0.00  0.00     0.000 O
ATOM     36  @S  SGN B   2     -24.040  53.802  13.0450  0.00  0.00     0.000 S
ATOM     37   O  SGN B   2     -22.935  53.767  13.9830  0.00  0.00     0.000 OA
ATOM     38   O  SGN B   2     -23.642  54.119  11.6930  0.00  0.00     0.000 OA
ATOM     39   O  SGN B   2     -25.166  54.610  13.4910  0.00  0.00     0.000 OA
ENDBRANCH 24 34
BRANCH 20 40
ATOM     40  O4  IDS B   3     -25.285  47.823  13.7560  0.00  0.00     0.000 O
BRANCH 40 44
ATOM     41  C1  IDS B   3     -22.207  46.152  13.5530  0.00  0.00     0.000 C
ATOM     42  C2  IDS B   3     -23.490  45.476  13.0730  0.00  0.00     0.000 C
ATOM     43  C3  IDS B   3     -24.693  45.572  14.0320  0.00  0.00     0.000 C
ATOM     44  C4  IDS B   3     -24.756  46.938  14.6860  0.00  0.00     0.000 C
ATOM     45  C5  IDS B   3     -23.373  47.422  15.1480  0.00  0.00     0.000 C
ATOM     46  O5  IDS B   3     -22.491  47.438  14.0860  0.00  0.00     0.000 O
ATOM     47   O  IDS B   3     -24.561  44.600  15.0480  0.00  0.00     0.000 O
ATOM     49  HD  IDS B   3     -24.985  45.142  14.5210  0.00  0.00     0.000 HD
BRANCH 42 49
ATOM     49   O  IDS B   3     -23.878  46.064  11.8650  0.00  0.00     0.000 O
ATOM     50   O  IDS B   3     -24.666  43.997  11.0540  0.00  0.00     0.000 OA
ATOM     51   O  IDS B   3     -25.887  45.966  10.5690  0.00  0.00     0.000 OA
ATOM     52   O  IDS B   3     -23.766  45.610   9.5970  0.00  0.00     0.000 OA
ATOM     53  @S  IDS B   3     -24.596  45.368  10.7050  0.00  0.00     0.000 S
ENDBRANCH 42 49
BRANCH 45 54
ATOM     54 @CA  IDS B   3     -23.356  48.779  15.8500  0.00  0.00     0.000 C
ATOM     55   O  IDS B   3     -22.755  49.715  15.3980  0.00  0.00     0.000 OA
ATOM     56   O  IDS B   3     -23.956  48.959  16.8570  0.00  0.00     0.000 OA
ENDBRANCH 45 54
BRANCH 41 57
ATOM     57  O4  SGN B   4     -21.571  45.339  14.4830  0.00  0.00     0.000 O
BRANCH 57 61
ATOM     58  C1  SGN B   4     -17.930  47.264  14.6800  0.00  0.00     0.000 C
ATOM     59  C2  SGN B   4     -18.217  46.533  13.3790  0.00  0.00     0.000 C
ATOM     60  C3  SGN B   4     -19.706  46.212  13.2830  0.00  0.00     0.000 C
ATOM     61  C4  SGN B   4     -20.180  45.418  14.5060  0.00  0.00     0.000 C
ATOM     62  C5  SGN B   4     -19.763  46.191  15.7550  0.00  0.00     0.000 C
ATOM     63  O5  SGN B   4     -18.373  46.454  15.7570  0.00  0.00     0.000 O
ATOM     64   O  SGN B   4     -19.929  45.431  12.1270  0.00  0.00     0.000 O
ATOM     66  HD  SGN B   4     -20.269  44.645  12.2540  0.00  0.00     0.000 HD
BRANCH 59 68
ATOM     66   N  SGN B   4     -16.991  46.296  12.6440  0.00  0.00     0.000 N
ATOM     68  HD  SGN B   4     -17.243  46.330  13.4720  0.00  0.00     0.000 HD
ATOM     68 @NS  SGN B   4     -16.204  47.549  11.9360  0.00  0.00     0.000 S
ATOM     69   O  SGN B   4     -17.182  48.454  11.4080  0.00  0.00     0.000 OA
ATOM     70   O  SGN B   4     -15.426  48.167  12.9710  0.00  0.00     0.000 OA
ATOM     71   O  SGN B   4     -15.409  46.937  10.9150  0.00  0.00     0.000 OA
ENDBRANCH 59 68
BRANCH 62 72
ATOM     72   C  SGN B   4     -20.067  45.441  17.0430  0.00  0.00     0.000 C
ATOM     73   O  SGN B   4     -21.109  46.145  17.6500  0.00  0.00     0.000 O
ATOM     74  @S  SGN B   4     -22.230  45.578  18.5380  0.00  0.00     0.000 S
ATOM     75   O  SGN B   4     -21.613  44.936  19.6390  0.00  0.00     0.000 OA
ATOM     76   O  SGN B   4     -22.982  46.730  18.9340  0.00  0.00     0.000 OA
ATOM     77   O  SGN B   4     -22.938  44.648  17.7240  0.00  0.00     0.000 OA
ENDBRANCH 62 72
BRANCH 58 78
ATOM     78  O4  IDS B   5     -18.551  48.533  14.6730  0.00  0.00     0.000 O
BRANCH 78 82
ATOM     79  C1  IDS B   5     -19.599  51.825  14.9250  0.00  0.00     0.000 C
ATOM     80  C2  IDS B   5     -18.871  51.380  13.6930  0.00  0.00     0.000 C
ATOM     81  C3  IDS B   5     -17.574  50.629  13.9810  0.00  0.00     0.000 C
ATOM     82  C4  IDS B   5     -17.726  49.602  15.0840  0.00  0.00     0.000 C
ATOM     83  C5  IDS B   5     -18.368  50.284  16.2500  0.00  0.00     0.000 C
ATOM     84  O5  IDS B   5     -19.641  50.771  15.8700  0.00  0.00     0.000 O
ATOM     85   O  IDS B   5     -16.617  51.570  14.4030  0.00  0.00     0.000 O
ATOM     87  HD  IDS B   5     -16.869  50.842  14.7990  0.00  0.00     0.000 HD
BRANCH 80 87
ATOM     87   O  IDS B   5     -19.686  50.521  12.9990  0.00  0.00     0.000 O
ATOM     88  @S  IDS B   5     -20.282  50.739  11.6060  0.00  0.00     0.000 S
ATOM     89   O  IDS B   5     -19.175  51.053  10.7770  0.00  0.00     0.000 OA
ATOM     90   O  IDS B   5     -20.929  49.518  11.2770  0.00  0.00     0.000 OA
ATOM     91   O  IDS B   5     -21.203  51.813  11.7370  0.00  0.00     0.000 OA
ENDBRANCH 80 87
BRANCH 83 92
ATOM     92 @CA  IDS B   5     -18.418  49.429  17.5100  0.00  0.00     0.000 C
ATOM     93   O  IDS B   5     -17.387  49.136  18.1200  0.00  0.00     0.000 OA
ATOM     94   O  IDS B   5     -19.498  49.008  17.9420  0.00  0.00     0.000 OA
ENDBRANCH 83 92
BRANCH 79 95
ATOM     95  O4  SGN B   6     -18.993  52.965  15.4350  0.00  0.00     0.000 O
BRANCH 95 99
ATOM     96  C1  SGN B   6     -20.275  56.825  16.2530  0.00  0.00     0.000 C
ATOM     97  C2  SGN B   6     -21.299  55.720  16.4840  0.00  0.00     0.000 C
ATOM     98  C3  SGN B   6     -20.508  54.425  16.6700  0.00  0.00     0.000 C
ATOM     99  C4  SGN B   6     -19.772  54.143  15.3290  0.00  0.00     0.000 C
ATOM    100  C5  SGN B   6     -18.826  55.352  15.0780  0.00  0.00     0.000 C
ATOM    101  O5  SGN B   6     -19.546  56.581  15.0660  0.00  0.00     0.000 O
BRANCH 97 104
ATOM    102   N  SGN B   6     -21.970  56.870  17.0980  0.00  0.00     0.000 N
ATOM    104  HD  SGN B   6     -22.313  56.635  17.8570  0.00  0.00     0.000 HD
ATOM    104 @NS  SGN B   6     -23.613  56.779  17.3070  0.00  0.00     0.000 S
ATOM    105   O  SGN B   6     -24.044  55.481  16.8350  0.00  0.00     0.000 OA
ATOM    106   O  SGN B   6     -23.864  56.958  18.7180  0.00  0.00     0.000 OA
ATOM    107   O  SGN B   6     -24.177  57.843  16.5060  0.00  0.00     0.000 OA
ENDBRANCH 97 104
BRANCH 100 108
ATOM    108   C  SGN B   6     -18.029  55.320  13.7790  0.00  0.00     0.000 C
ATOM    109   O  SGN B   6     -18.907  55.135  12.6970  0.00  0.00     0.000 O
ATOM    110  @S  SGN B   6     -18.493  55.039  11.1840  0.00  0.00     0.000 S
ATOM    111   O  SGN B   6     -17.284  54.251  11.1520  0.00  0.00     0.000 OA
ATOM    112   O  SGN B   6     -19.593  54.381  10.4980  0.00  0.00     0.000 OA
ATOM    113   O  SGN B   6     -18.284  56.401  10.7480  0.00  0.00     0.000 OA
ENDBRANCH 100 108
ENDBRANCH 95 99
ENDBRANCH 79 95
ENDBRANCH 78 82
ENDBRANCH 58 78
ENDBRANCH 57 61
ENDBRANCH 41 57
ENDBRANCH 40 44
ENDBRANCH 20 40
ENDBRANCH 19 23
ENDBRANCH 1 19
TORSDOF 22
ENDMDL
MODEL 99
REMARK VINA RESULT:       6.9      3.351      6.171
ROOT
ATOM      1  C1  IDS B   1     -25.616  59.797   9.9870  0.00  0.00     0.000 C
ATOM      2  C2  IDS B   1     -26.606  60.914  10.1890  0.00  0.00     0.000 C
ATOM      3  C3  IDS B   1     -28.093  60.555   9.9560  0.00  0.00     0.000 C
ATOM      4  C4  IDS B   1     -28.430  59.042  10.2330  0.00  0.00     0.000 C
ATOM      5  C5  IDS B   1     -27.218  58.108   9.9940  0.00  0.00     0.000 C
ATOM      6  O5  IDS B   1     -26.079  58.625  10.6270  0.00  0.00     0.000 O
ATOM      7   O  IDS B   1     -28.409  60.912   8.6150  0.00  0.00     0.000 O
ATOM      9  HD  IDS B   1     -28.955  60.297   8.8860  0.00  0.00     0.000 HD
ATOM      9   O  IDS B   1     -28.807  58.927  11.5860  0.00  0.00     0.000 O
ATOM     11  HD  IDS B   1     -29.352  58.312  11.8580  0.00  0.00     0.000 HD
ENDROOT
BRANCH 2 11
ATOM     11   O  IDS B   1     -26.516  61.388  11.4880  0.00  0.00     0.000 O
ATOM     12  @S  IDS B   1     -25.903  62.747  11.8790  0.00  0.00     0.000 S
ATOM     13   O  IDS B   1     -24.959  63.021  10.8140  0.00  0.00     0.000 OA
ATOM     14   O  IDS B   1     -26.996  63.702  11.9150  0.00  0.00     0.000 OA
ATOM     15   O  IDS B   1     -25.289  62.544  13.1770  0.00  0.00     0.000 OA
ENDBRANCH 2 11
BRANCH 5 16
ATOM     16 @CA  IDS B   1     -27.401  56.643  10.3790  0.00  0.00     0.000 C
ATOM     17   O  IDS B   1     -28.496  56.091  10.3130  0.00  0.00     0.000 OA
ATOM     18   O  IDS B   1     -26.442  55.973  10.7540  0.00  0.00     0.000 OA
ENDBRANCH 5 16
BRANCH 1 19
ATOM     19  O4  SGN B   2     -25.470  59.588   8.5980  0.00  0.00     0.000 O
BRANCH 19 23
ATOM     20  C1  SGN B   2     -21.794  57.790   8.5050  0.00  0.00     0.000 C
ATOM     21  C2  SGN B   2     -21.862  59.300   8.5830  0.00  0.00     0.000 C
ATOM     22  C3  SGN B   2     -23.162  59.705   9.1790  0.00  0.00     0.000 C
ATOM     23  C4  SGN B   2     -24.201  59.217   8.1950  0.00  0.00     0.000 C
ATOM     24  C5  SGN B   2     -24.120  57.731   8.2460  0.00  0.00     0.000 C
ATOM     25  O5  SGN B   2     -22.899  57.320   7.7470  0.00  0.00     0.000 O
ATOM     26   O  SGN B   2     -23.210  61.084   9.2880  0.00  0.00     0.000 O
ATOM     28  HD  SGN B   2     -23.358  61.933   9.2050  0.00  0.00     0.000 HD
BRANCH 21 30
ATOM     28   N  SGN B   2     -20.659  59.332   7.8040  0.00  0.00     0.000 N
ATOM     30  HD  SGN B   2     -20.367  58.537   7.9820  0.00  0.00     0.000 HD
ATOM     30 @NS  SGN B   2     -19.340  59.964   8.5120  0.00  0.00     0.000 S
ATOM     31   O  SGN B   2     -19.627  60.233   9.8810  0.00  0.00     0.000 OA
ATOM     32   O  SGN B   2     -18.376  58.951   8.3770  0.00  0.00     0.000 OA
ATOM     33   O  SGN B   2     -19.045  61.155   7.8080  0.00  0.00     0.000 OA
ENDBRANCH 21 30
BRANCH 24 34
ATOM     34   C  SGN B   2     -25.163  57.010   7.4740  0.00  0.00     0.000 C
ATOM     35   O  SGN B   2     -25.047  55.664   7.7720  0.00  0.00     0.000 O
ATOM     36  @S  SGN B   2     -26.071  54.618   7.3460  0.00  0.00     0.000 S
ATOM     37   O  SGN B   2     -25.585  54.143   6.0660  0.00  0.00     0.000 OA
ATOM     38   O  SGN B   2     -26.081  53.604   8.3750  0.00  0.00     0.000 OA
ATOM     39   O  SGN B   2     -27.337  55.334   7.2670  0.00  0.00     0.000 OA
ENDBRANCH 24 34
BRANCH 20 40
ATOM     40  O4  IDS B   3     -21.785  57.236   9.7850  0.00  0.00     0.000 O
BRANCH 40 44
ATOM     41  C1  IDS B   3     -20.975  54.533  11.8690  0.00  0.00     0.000 C
ATOM     42  C2  IDS B   3     -21.086  55.946  12.4390  0.00  0.00     0.000 C
ATOM     43  C3  IDS B   3     -20.363  57.046  11.6380  0.00  0.00     0.000 C
ATOM     44  C4  IDS B   3     -20.511  56.818  10.1470  0.00  0.00     0.000 C
ATOM     45  C5  IDS B   3     -20.312  55.342   9.7660  0.00  0.00     0.000 C
ATOM     46  O5  IDS B   3     -21.194  54.543  10.4660  0.00  0.00     0.000 O
ATOM     47   O  IDS B   3     -18.987  57.027  11.9540  0.00  0.00     0.000 O
ATOM     49  HD  IDS B   3     -19.733  57.379  11.6910  0.00  0.00     0.000 HD
BRANCH 42 49
ATOM     49   O  IDS B   3     -22.438  56.298  12.4950  0.00  0.00     0.000 O
ATOM     50   O  IDS B   3     -22.575  55.615  14.7450  0.00  0.00     0.000 OA
ATOM     51   O  IDS B   3     -23.736  57.560  14.0590  0.00  0.00     0.000 OA
ATOM     52   O  IDS B   3     -24.427  55.433  13.3060  0.00  0.00     0.000 OA
ATOM     53  @S  IDS B   3     -23.346  56.226  13.7260  0.00  0.00     0.000 S
ENDBRANCH 42 49
BRANCH 45 54
ATOM     54 @CA  IDS B   3     -20.412  55.033   8.2740  0.00  0.00     0.000 C
ATOM     55   O  IDS B   3     -21.284  54.336   7.8310  0.00  0.00     0.000 OA
ATOM     56   O  IDS B   3     -19.642  55.492   7.4960  0.00  0.00     0.000 OA
ENDBRANCH 45 54
BRANCH 41 57
ATOM     57  O4  SGN B   4     -19.734  53.997  12.1910  0.00  0.00     0.000 O
BRANCH 57 61
ATOM     58  C1  SGN B   4     -21.490  50.540  13.5930  0.00  0.00     0.000 C
ATOM     59  C2  SGN B   4     -20.882  51.443  14.6520  0.00  0.00     0.000 C
ATOM     60  C3  SGN B   4     -20.629  52.829  14.0670  0.00  0.00     0.000 C
ATOM     61  C4  SGN B   4     -19.756  52.747  12.8090  0.00  0.00     0.000 C
ATOM     62  C5  SGN B   4     -20.406  51.750  11.8540  0.00  0.00     0.000 C
ATOM     63  O5  SGN B   4     -20.613  50.498  12.4800  0.00  0.00     0.000 O
ATOM     64   O  SGN B   4     -19.955  53.613  15.0300  0.00  0.00     0.000 O
ATOM     66  HD  SGN B   4     -19.175  53.914  14.8040  0.00  0.00     0.000 HD
BRANCH 59 68
ATOM     66   N  SGN B   4     -20.864  50.315  15.5610  0.00  0.00     0.000 N
ATOM     68  HD  SGN B   4     -21.122  50.477  14.7510  0.00  0.00     0.000 HD
ATOM     68 @NS  SGN B   4     -21.933  50.245  16.8030  0.00  0.00     0.000 S
ATOM     69   O  SGN B   4     -22.106  51.570  17.3220  0.00  0.00     0.000 OA
ATOM     70   O  SGN B   4     -23.155  49.739  16.2500  0.00  0.00     0.000 OA
ATOM     71   O  SGN B   4     -21.324  49.357  17.7460  0.00  0.00     0.000 OA
ENDBRANCH 59 68
BRANCH 62 72
ATOM     72   C  SGN B   4     -19.565  51.484  10.6140  0.00  0.00     0.000 C
ATOM     73   O  SGN B   4     -18.881  50.295  10.8740  0.00  0.00     0.000 O
ATOM     74  @S  SGN B   4     -18.444  49.225   9.8580  0.00  0.00     0.000 S
ATOM     75   O  SGN B   4     -17.605  49.860   8.9100  0.00  0.00     0.000 OA
ATOM     76   O  SGN B   4     -17.739  48.259  10.6460  0.00  0.00     0.000 OA
ATOM     77   O  SGN B   4     -19.644  48.750   9.2540  0.00  0.00     0.000 OA
ENDBRANCH 62 72
BRANCH 58 78
ATOM     78  O4  IDS B   5     -22.780  51.000  13.2430  0.00  0.00     0.000 O
BRANCH 78 82
ATOM     79  C1  IDS B   5     -26.095  51.558  12.4090  0.00  0.00     0.000 C
ATOM     80  C2  IDS B   5     -25.763  51.006  13.7620  0.00  0.00     0.000 C
ATOM     81  C3  IDS B   5     -24.821  49.806  13.7240  0.00  0.00     0.000 C
ATOM     82  C4  IDS B   5     -23.660  50.003  12.7700  0.00  0.00     0.000 C
ATOM     83  C5  IDS B   5     -24.225  50.443  11.4570  0.00  0.00     0.000 C
ATOM     84  O5  IDS B   5     -24.920  51.664  11.6260  0.00  0.00     0.000 O
ATOM     85   O  IDS B   5     -25.559  48.695  13.2730  0.00  0.00     0.000 O
ATOM     87  HD  IDS B   5     -24.815  49.010  12.9620  0.00  0.00     0.000 HD
BRANCH 80 87
ATOM     87   O  IDS B   5     -25.130  51.988  14.4830  0.00  0.00     0.000 O
ATOM     88  @S  IDS B   5     -25.649  52.685  15.7430  0.00  0.00     0.000 S
ATOM     89   O  IDS B   5     -25.978  51.633  16.6360  0.00  0.00     0.000 OA
ATOM     90   O  IDS B   5     -24.581  53.512  16.1840  0.00  0.00     0.000 OA
ATOM     91   O  IDS B   5     -26.779  53.444  15.3360  0.00  0.00     0.000 OA
ENDBRANCH 80 87
BRANCH 83 92
ATOM     92 @CA  IDS B   5     -23.195  50.503  10.3360  0.00  0.00     0.000 C
ATOM     93   O  IDS B   5     -22.480  49.533  10.0780  0.00  0.00     0.000 OA
ATOM     94   O  IDS B   5     -23.056  51.533   9.6650  0.00  0.00     0.000 OA
ENDBRANCH 83 92
BRANCH 79 95
ATOM     95  O4  SGN B   6     -27.058  50.759  11.8060  0.00  0.00     0.000 O
BRANCH 95 99
ATOM     96  C1  SGN B   6     -30.753  52.322  10.7520  0.00  0.00     0.000 C
ATOM     97  C2  SGN B   6     -29.953  53.129  11.7680  0.00  0.00     0.000 C
ATOM     98  C3  SGN B   6     -28.490  52.722  11.5940  0.00  0.00     0.000 C
ATOM     99  C4  SGN B   6     -28.388  51.216  11.9700  0.00  0.00     0.000 C
ATOM    100  C5  SGN B   6     -29.310  50.447  10.9810  0.00  0.00     0.000 C
ATOM    101  O5  SGN B   6     -30.646  50.939  11.0270  0.00  0.00     0.000 O
BRANCH 97 104
ATOM    102   N  SGN B   6     -30.555  54.402  11.3610  0.00  0.00     0.000 N
ATOM    104  HD  SGN B   6     -30.163  55.055  11.7750  0.00  0.00     0.000 HD
ATOM    104 @NS  SGN B   6     -31.348  55.284  12.5220  0.00  0.00     0.000 S
ATOM    105   O  SGN B   6     -31.232  54.566  13.7730  0.00  0.00     0.000 OA
ATOM    106   O  SGN B   6     -30.706  56.577  12.5730  0.00  0.00     0.000 OA
ATOM    107   O  SGN B   6     -32.725  55.367  12.0890  0.00  0.00     0.000 OA
ENDBRANCH 97 104
BRANCH 100 108
ATOM    108   C  SGN B   6     -29.410  48.941  11.1910  0.00  0.00     0.000 C
ATOM    109   O  SGN B   6     -29.050  48.630  12.5140  0.00  0.00     0.000 O
ATOM    110  @S  SGN B   6     -29.012  47.189  13.1420  0.00  0.00     0.000 S
ATOM    111   O  SGN B   6     -28.463  46.327  12.1230  0.00  0.00     0.000 OA
ATOM    112   O  SGN B   6     -28.150  47.273  14.3100  0.00  0.00     0.000 OA
ATOM    113   O  SGN B   6     -30.383  46.868  13.4670  0.00  0.00     0.000 OA
ENDBRANCH 100 108
ENDBRANCH 95 99
ENDBRANCH 79 95
ENDBRANCH 78 82
ENDBRANCH 58 78
ENDBRANCH 57 61
ENDBRANCH 41 57
ENDBRANCH 40 44
ENDBRANCH 20 40
ENDBRANCH 19 23
ENDBRANCH 1 19
TORSDOF 22
ENDMDL
