MODEL 1
REMARK VINA RESULT:      -9.2      0.000      0.000
ROOT
ATOM      1  C1  IDS B   1     -14.760  56.776  14.0940  0.00  0.00     0.000 C
ATOM      2  C2  IDS B   1     -14.157  57.009  12.7330  0.00  0.00     0.000 C
ATOM      3  C3  IDS B   1     -14.145  58.474  12.2360  0.00  0.00     0.000 C
ATOM      4  C4  IDS B   1     -14.092  59.536  13.3970  0.00  0.00     0.000 C
ATOM      5  C5  IDS B   1     -14.742  59.023  14.7050  0.00  0.00     0.000 C
ATOM      6  O5  IDS B   1     -14.269  57.738  15.0060  0.00  0.00     0.000 O
ATOM      7   O  IDS B   1     -15.304  58.656  11.4290  0.00  0.00     0.000 O
ATOM      9  HD  IDS B   1     -15.046  59.421  11.7410  0.00  0.00     0.000 HD
ATOM      9   O  IDS B   1     -12.736  59.812  13.6640  0.00  0.00     0.000 O
ATOM     11  HD  IDS B   1     -12.478  60.578  13.9770  0.00  0.00     0.000 HD
ENDROOT
BRANCH 2 11
ATOM     11   O  IDS B   1     -12.839  56.582  12.7290  0.00  0.00     0.000 O
ATOM     12  @S  IDS B   1     -12.220  55.672  11.6500  0.00  0.00     0.000 S
ATOM     13   O  IDS B   1     -13.350  54.923  11.1390  0.00  0.00     0.000 OA
ATOM     14   O  IDS B   1     -11.636  56.549  10.6510  0.00  0.00     0.000 OA
ATOM     15   O  IDS B   1     -11.233  54.862  12.3340  0.00  0.00     0.000 OA
ENDBRANCH 2 11
BRANCH 5 16
ATOM     16 @CA  IDS B   1     -14.608  59.922  15.9310  0.00  0.00     0.000 C
ATOM     17   O  IDS B   1     -14.050  61.015  15.8710  0.00  0.00     0.000 OA
ATOM     18   O  IDS B   1     -15.072  59.573  17.0130  0.00  0.00     0.000 OA
ENDBRANCH 5 16
BRANCH 1 19
ATOM     19  O4  SGN B   2     -16.164  56.870  13.9710  0.00  0.00     0.000 O
BRANCH 19 23
ATOM     20  C1  SGN B   2     -19.266  54.968  15.8470  0.00  0.00     0.000 C
ATOM     21  C2  SGN B   2     -18.453  55.977  16.6280  0.00  0.00     0.000 C
ATOM     22  C3  SGN B   2     -17.817  56.935  15.6860  0.00  0.00     0.000 C
ATOM     23  C4  SGN B   2     -16.879  56.087  14.8570  0.00  0.00     0.000 C
ATOM     24  C5  SGN B   2     -17.763  55.187  14.0650  0.00  0.00     0.000 C
ATOM     25  O5  SGN B   2     -18.413  54.315  14.9180  0.00  0.00     0.000 O
ATOM     26   O  SGN B   2     -17.107  57.883  16.4020  0.00  0.00     0.000 O
ATOM     28  HD  SGN B   2     -16.509  58.376  16.7890  0.00  0.00     0.000 HD
BRANCH 21 30
ATOM     28   N  SGN B   2     -19.642  56.175  17.4050  0.00  0.00     0.000 N
ATOM     30  HD  SGN B   2     -19.545  57.017  17.5800  0.00  0.00     0.000 HD
ATOM     30 @NS  SGN B   2     -19.548  55.845  18.9930  0.00  0.00     0.000 S
ATOM     31   O  SGN B   2     -18.196  55.554  19.3320  0.00  0.00     0.000 OA
ATOM     32   O  SGN B   2     -19.989  57.031  19.6030  0.00  0.00     0.000 OA
ATOM     33   O  SGN B   2     -20.382  54.724  19.2140  0.00  0.00     0.000 OA
ENDBRANCH 21 30
BRANCH 24 34
ATOM     34   C  SGN B   2     -17.075  54.356  13.0460  0.00  0.00     0.000 C
ATOM     35   O  SGN B   2     -16.298  53.430  13.7180  0.00  0.00     0.000 O
ATOM     36  @S  SGN B   2     -15.604  52.259  13.0320  0.00  0.00     0.000 S
ATOM     37   O  SGN B   2     -14.292  52.772  12.6910  0.00  0.00     0.000 OA
ATOM     38   O  SGN B   2     -15.572  51.177  13.9880  0.00  0.00     0.000 OA
ATOM     39   O  SGN B   2     -16.434  51.948  11.8760  0.00  0.00     0.000 OA
ENDBRANCH 24 34
BRANCH 20 40
ATOM     40  O4  IDS B   3     -20.333  55.594  15.2030  0.00  0.00     0.000 O
BRANCH 40 44
ATOM     41  C1  IDS B   3     -23.710  55.939  14.3180  0.00  0.00     0.000 C
ATOM     42  C2  IDS B   3     -23.314  55.197  15.5930  0.00  0.00     0.000 C
ATOM     43  C3  IDS B   3     -22.178  54.168  15.4400  0.00  0.00     0.000 C
ATOM     44  C4  IDS B   3     -21.105  54.680  14.4990  0.00  0.00     0.000 C
ATOM     45  C5  IDS B   3     -21.703  55.347  13.2500  0.00  0.00     0.000 C
ATOM     46  O5  IDS B   3     -22.555  56.371  13.6140  0.00  0.00     0.000 O
ATOM     47   O  IDS B   3     -22.701  52.969  14.9060  0.00  0.00     0.000 O
ATOM     49  HD  IDS B   3     -22.145  53.459  15.3560  0.00  0.00     0.000 HD
BRANCH 42 49
ATOM     49   O  IDS B   3     -22.895  56.135  16.5420  0.00  0.00     0.000 O
ATOM     50   O  IDS B   3     -25.123  56.762  16.9810  0.00  0.00     0.000 OA
ATOM     51   O  IDS B   3     -23.590  56.621  18.7800  0.00  0.00     0.000 OA
ATOM     52   O  IDS B   3     -23.367  58.318  17.1540  0.00  0.00     0.000 OA
ATOM     53  @S  IDS B   3     -23.798  57.007  17.4190  0.00  0.00     0.000 S
ENDBRANCH 42 49
BRANCH 45 54
ATOM     54 @CA  IDS B   3     -20.686  55.860  12.2330  0.00  0.00     0.000 C
ATOM     55   O  IDS B   3     -20.196  56.952  12.3280  0.00  0.00     0.000 OA
ATOM     56   O  IDS B   3     -20.329  55.186  11.3240  0.00  0.00     0.000 OA
ENDBRANCH 45 54
BRANCH 41 57
ATOM     57  O4  SGN B   4     -24.513  55.122  13.5340  0.00  0.00     0.000 O
BRANCH 57 61
ATOM     58  C1  SGN B   4     -27.130  55.456  10.3650  0.00  0.00     0.000 C
ATOM     59  C2  SGN B   4     -25.671  55.258   9.9930  0.00  0.00     0.000 C
ATOM     60  C3  SGN B   4     -24.889  54.764  11.2070  0.00  0.00     0.000 C
ATOM     61  C4  SGN B   4     -25.056  55.717  12.3960  0.00  0.00     0.000 C
ATOM     62  C5  SGN B   4     -26.552  55.920  12.6270  0.00  0.00     0.000 C
ATOM     63  O5  SGN B   4     -27.198  56.367  11.4500  0.00  0.00     0.000 O
ATOM     64   O  SGN B   4     -23.519  54.701  10.8710  0.00  0.00     0.000 O
ATOM     66  HD  SGN B   4     -22.984  55.193  11.3420  0.00  0.00     0.000 HD
BRANCH 59 68
ATOM     66   N  SGN B   4     -25.623  54.293   8.9130  0.00  0.00     0.000 N
ATOM     68  HD  SGN B   4     -25.059  54.748   9.3880  0.00  0.00     0.000 HD
ATOM     68 @NS  SGN B   4     -26.023  54.747   7.3890  0.00  0.00     0.000 S
ATOM     69   O  SGN B   4     -27.118  55.668   7.4660  0.00  0.00     0.000 OA
ATOM     70   O  SGN B   4     -24.854  55.371   6.8390  0.00  0.00     0.000 OA
ATOM     71   O  SGN B   4     -26.374  53.523   6.7350  0.00  0.00     0.000 OA
ENDBRANCH 59 68
BRANCH 62 72
ATOM     72   C  SGN B   4     -26.849  56.950  13.7060  0.00  0.00     0.000 C
ATOM     73   O  SGN B   4     -26.205  58.119  13.2960  0.00  0.00     0.000 O
ATOM     74  @S  SGN B   4     -26.641  59.570  13.5600  0.00  0.00     0.000 S
ATOM     75   O  SGN B   4     -26.717  59.740  14.9640  0.00  0.00     0.000 OA
ATOM     76   O  SGN B   4     -25.601  60.362  12.9740  0.00  0.00     0.000 OA
ATOM     77   O  SGN B   4     -27.920  59.709  12.9500  0.00  0.00     0.000 OA
ENDBRANCH 62 72
BRANCH 58 78
ATOM     78  O4  IDS B   5     -27.729  54.213  10.6700  0.00  0.00     0.000 O
BRANCH 78 82
ATOM     79  C1  IDS B   5     -29.634  51.339  10.9980  0.00  0.00     0.000 C
ATOM     80  C2  IDS B   5     -29.163  51.755   9.6370  0.00  0.00     0.000 C
ATOM     81  C3  IDS B   5     -29.451  53.217   9.3050  0.00  0.00     0.000 C
ATOM     82  C4  IDS B   5     -29.121  54.153  10.4500  0.00  0.00     0.000 C
ATOM     83  C5  IDS B   5     -29.780  53.611  11.6790  0.00  0.00     0.000 C
ATOM     84  O5  IDS B   5     -29.275  52.318  11.9560  0.00  0.00     0.000 O
ATOM     85   O  IDS B   5     -30.829  53.334   9.0420  0.00  0.00     0.000 O
ATOM     87  HD  IDS B   5     -30.347  53.785   9.6030  0.00  0.00     0.000 HD
BRANCH 80 87
ATOM     87   O  IDS B   5     -27.801  51.594   9.5870  0.00  0.00     0.000 O
ATOM     88  @S  IDS B   5     -27.023  50.588   8.7350  0.00  0.00     0.000 S
ATOM     89   O  IDS B   5     -27.487  50.791   7.4100  0.00  0.00     0.000 OA
ATOM     90   O  IDS B   5     -25.653  50.908   8.9290  0.00  0.00     0.000 OA
ATOM     91   O  IDS B   5     -27.349  49.304   9.2490  0.00  0.00     0.000 OA
ENDBRANCH 80 87
BRANCH 83 92
ATOM     92 @CA  IDS B   5     -29.697  54.544  12.8810  0.00  0.00     0.000 C
ATOM     93   O  IDS B   5     -30.203  55.668  12.8490  0.00  0.00     0.000 OA
ATOM     94   O  IDS B   5     -29.114  54.190  13.9130  0.00  0.00     0.000 OA
ENDBRANCH 83 92
BRANCH 79 95
ATOM     95  O4  SGN B   6     -31.004  51.114  10.9650  0.00  0.00     0.000 O
BRANCH 95 99
ATOM     96  C1  SGN B   6     -33.827  49.466  13.5200  0.00  0.00     0.000 C
ATOM     97  C2  SGN B   6     -32.983  50.596  14.0990  0.00  0.00     0.000 C
ATOM     98  C3  SGN B   6     -32.450  51.395  12.9090  0.00  0.00     0.000 C
ATOM     99  C4  SGN B   6     -31.517  50.447  12.1040  0.00  0.00     0.000 C
ATOM    100  C5  SGN B   6     -32.396  49.252  11.6340  0.00  0.00     0.000 C
ATOM    101  O5  SGN B   6     -33.025  48.604  12.7360  0.00  0.00     0.000 O
BRANCH 97 104
ATOM    102   N  SGN B   6     -32.743  50.261  15.5060  0.00  0.00     0.000 N
ATOM    104  HD  SGN B   6     -33.448  49.885  15.8400  0.00  0.00     0.000 HD
ATOM    104 @NS  SGN B   6     -33.667  51.030  16.6480  0.00  0.00     0.000 S
ATOM    105   O  SGN B   6     -34.594  51.897  15.9520  0.00  0.00     0.000 OA
ATOM    106   O  SGN B   6     -34.344  49.999  17.3990  0.00  0.00     0.000 OA
ATOM    107   O  SGN B   6     -32.746  51.792  17.4610  0.00  0.00     0.000 OA
ENDBRANCH 97 104
BRANCH 100 108
ATOM    108   C  SGN B   6     -31.676  48.156  10.8580  0.00  0.00     0.000 C
ATOM    109   O  SGN B   6     -30.487  47.814  11.5260  0.00  0.00     0.000 O
ATOM    110  @S  SGN B   6     -29.448  46.732  11.0590  0.00  0.00     0.000 S
ATOM    111   O  SGN B   6     -29.343  46.875   9.6260  0.00  0.00     0.000 OA
ATOM    112   O  SGN B   6     -28.198  47.044  11.7330  0.00  0.00     0.000 OA
ATOM    113   O  SGN B   6     -30.005  45.458  11.4540  0.00  0.00     0.000 OA
ENDBRANCH 100 108
ENDBRANCH 95 99
ENDBRANCH 79 95
ENDBRANCH 78 82
ENDBRANCH 58 78
ENDBRANCH 57 61
ENDBRANCH 41 57
ENDBRANCH 40 44
ENDBRANCH 20 40
ENDBRANCH 19 23
ENDBRANCH 1 19
TORSDOF 22
ENDMDL
MODEL 2
REMARK VINA RESULT:      -8.8      3.395      5.077
ROOT
ATOM      1  C1  IDS B   1     -15.501  48.447  11.7260  0.00  0.00     0.000 C
ATOM      2  C2  IDS B   1     -15.458  48.136  10.2530  0.00  0.00     0.000 C
ATOM      3  C3  IDS B   1     -14.447  48.954   9.4140  0.00  0.00     0.000 C
ATOM      4  C4  IDS B   1     -13.192  49.438  10.2320  0.00  0.00     0.000 C
ATOM      5  C5  IDS B   1     -13.499  49.636  11.7360  0.00  0.00     0.000 C
ATOM      6  O5  IDS B   1     -14.186  48.522  12.2380  0.00  0.00     0.000 O
ATOM      7   O  IDS B   1     -15.154  50.059   8.8610  0.00  0.00     0.000 O
ATOM      9  HD  IDS B   1     -14.311  50.249   8.9070  0.00  0.00     0.000 HD
ATOM      9   O  IDS B   1     -12.197  48.445  10.1190  0.00  0.00     0.000 O
ATOM     11  HD  IDS B   1     -11.354  48.635  10.1650  0.00  0.00     0.000 HD
ENDROOT
BRANCH 2 11
ATOM     11   O  IDS B   1     -15.133  46.802  10.0680  0.00  0.00     0.000 O
ATOM     12  @S  IDS B   1     -15.102  46.094   8.7000  0.00  0.00     0.000 S
ATOM     13   O  IDS B   1     -16.040  46.852   7.8960  0.00  0.00     0.000 OA
ATOM     14   O  IDS B   1     -13.739  46.194   8.2090  0.00  0.00     0.000 OA
ATOM     15   O  IDS B   1     -15.510  44.726   8.9530  0.00  0.00     0.000 OA
ENDBRANCH 2 11
BRANCH 5 16
ATOM     16 @CA  IDS B   1     -12.312  49.959  12.6380  0.00  0.00     0.000 C
ATOM     17   O  IDS B   1     -11.331  49.222  12.7000  0.00  0.00     0.000 OA
ATOM     18   O  IDS B   1     -12.306  50.982  13.3180  0.00  0.00     0.000 OA
ENDBRANCH 5 16
BRANCH 1 19
ATOM     19  O4  SGN B   2     -16.177  49.676  11.8940  0.00  0.00     0.000 O
BRANCH 19 23
ATOM     20  C1  SGN B   2     -18.895  50.881  14.7080  0.00  0.00     0.000 C
ATOM     21  C2  SGN B   2     -17.431  51.187  14.9340  0.00  0.00     0.000 C
ATOM     22  C3  SGN B   2     -16.725  51.217  13.6270  0.00  0.00     0.000 C
ATOM     23  C4  SGN B   2     -16.854  49.809  13.0910  0.00  0.00     0.000 C
ATOM     24  C5  SGN B   2     -18.307  49.626  12.8210  0.00  0.00     0.000 C
ATOM     25  O5  SGN B   2     -19.002  49.645  14.0140  0.00  0.00     0.000 O
ATOM     26   O  SGN B   2     -15.393  51.538  13.8290  0.00  0.00     0.000 O
ATOM     28  HD  SGN B   2     -14.532  51.550  13.9210  0.00  0.00     0.000 HD
BRANCH 21 30
ATOM     28   N  SGN B   2     -18.112  52.106  15.7980  0.00  0.00     0.000 N
ATOM     30  HD  SGN B   2     -17.743  52.840  15.5250  0.00  0.00     0.000 HD
ATOM     30 @NS  SGN B   2     -17.472  52.344  17.2730  0.00  0.00     0.000 S
ATOM     31   O  SGN B   2     -16.220  51.669  17.3540  0.00  0.00     0.000 OA
ATOM     32   O  SGN B   2     -17.312  53.738  17.3420  0.00  0.00     0.000 OA
ATOM     33   O  SGN B   2     -18.399  51.811  18.1980  0.00  0.00     0.000 OA
ENDBRANCH 21 30
BRANCH 24 34
ATOM     34   C  SGN B   2     -18.671  48.361  12.1340  0.00  0.00     0.000 C
ATOM     35   O  SGN B   2     -19.172  48.693  10.8880  0.00  0.00     0.000 O
ATOM     36  @S  SGN B   2     -19.458  47.667   9.7970  0.00  0.00     0.000 S
ATOM     37   O  SGN B   2     -20.844  47.301  10.0050  0.00  0.00     0.000 OA
ATOM     38   O  SGN B   2     -19.216  48.326   8.5340  0.00  0.00     0.000 OA
ATOM     39   O  SGN B   2     -18.519  46.581  10.0390  0.00  0.00     0.000 OA
ENDBRANCH 24 34
BRANCH 20 40
ATOM     40  O4  IDS B   3     -19.506  51.914  13.9990  0.00  0.00     0.000 O
BRANCH 40 44
ATOM     41  C1  IDS B   3     -22.203  54.098  13.4840  0.00  0.00     0.000 C
ATOM     42  C2  IDS B   3     -22.016  53.400  14.8300  0.00  0.00     0.000 C
ATOM     43  C3  IDS B   3     -21.722  51.888  14.7620  0.00  0.00     0.000 C
ATOM     44  C4  IDS B   3     -20.793  51.568  13.6080  0.00  0.00     0.000 C
ATOM     45  C5  IDS B   3     -21.177  52.328  12.3290  0.00  0.00     0.000 C
ATOM     46  O5  IDS B   3     -21.199  53.689  12.5670  0.00  0.00     0.000 O
ATOM     47   O  IDS B   3     -22.931  51.185  14.5660  0.00  0.00     0.000 O
ATOM     49  HD  IDS B   3     -22.113  51.294  14.8280  0.00  0.00     0.000 HD
BRANCH 42 49
ATOM     49   O  IDS B   3     -20.942  53.999  15.4970  0.00  0.00     0.000 O
ATOM     50   O  IDS B   3     -22.403  55.414  16.6840  0.00  0.00     0.000 OA
ATOM     51   O  IDS B   3     -20.522  54.505  17.7970  0.00  0.00     0.000 OA
ATOM     52   O  IDS B   3     -20.237  56.120  16.1000  0.00  0.00     0.000 OA
ATOM     53  @S  IDS B   3     -21.033  55.069  16.5870  0.00  0.00     0.000 S
ENDBRANCH 42 49
BRANCH 45 54
ATOM     54 @CA  IDS B   3     -20.309  52.034  11.1070  0.00  0.00     0.000 C
ATOM     55   O  IDS B   3     -19.188  52.456  11.0140  0.00  0.00     0.000 OA
ATOM     56   O  IDS B   3     -20.706  51.358  10.2170  0.00  0.00     0.000 OA
ENDBRANCH 45 54
BRANCH 41 57
ATOM     57  O4  SGN B   4     -23.479  53.839  12.9980  0.00  0.00     0.000 O
BRANCH 57 61
ATOM     58  C1  SGN B   4     -26.458  55.631  10.7820  0.00  0.00     0.000 C
ATOM     59  C2  SGN B   4     -25.157  55.368  10.0420  0.00  0.00     0.000 C
ATOM     60  C3  SGN B   4     -24.306  54.375  10.8280  0.00  0.00     0.000 C
ATOM     61  C4  SGN B   4     -24.066  54.866  12.2600  0.00  0.00     0.000 C
ATOM     62  C5  SGN B   4     -25.424  55.186  12.8790  0.00  0.00     0.000 C
ATOM     63  O5  SGN B   4     -26.149  56.104  12.0820  0.00  0.00     0.000 O
ATOM     64   O  SGN B   4     -23.056  54.239  10.1850  0.00  0.00     0.000 O
ATOM     66  HD  SGN B   4     -22.358  54.453  10.6500  0.00  0.00     0.000 HD
BRANCH 59 68
ATOM     66   N  SGN B   4     -25.833  56.273   9.1350  0.00  0.00     0.000 N
ATOM     68  HD  SGN B   4     -26.049  55.736   9.7780  0.00  0.00     0.000 HD
ATOM     68 @NS  SGN B   4     -26.041  55.856   7.5630  0.00  0.00     0.000 S
ATOM     69   O  SGN B   4     -24.868  55.158   7.1240  0.00  0.00     0.000 OA
ATOM     70   O  SGN B   4     -27.197  55.007   7.5250  0.00  0.00     0.000 OA
ATOM     71   O  SGN B   4     -26.228  57.103   6.8860  0.00  0.00     0.000 OA
ENDBRANCH 59 68
BRANCH 62 72
ATOM     72   C  SGN B   4     -25.311  55.805  14.2640  0.00  0.00     0.000 C
ATOM     73   O  SGN B   4     -25.150  57.176  14.0500  0.00  0.00     0.000 O
ATOM     74  @S  SGN B   4     -25.625  58.327  14.9540  0.00  0.00     0.000 S
ATOM     75   O  SGN B   4     -25.025  58.143  16.2230  0.00  0.00     0.000 OA
ATOM     76   O  SGN B   4     -25.152  59.508  14.2960  0.00  0.00     0.000 OA
ATOM     77   O  SGN B   4     -27.042  58.205  15.0260  0.00  0.00     0.000 OA
ENDBRANCH 62 72
BRANCH 58 78
ATOM     78  O4  IDS B   5     -27.247  54.458  10.8120  0.00  0.00     0.000 O
BRANCH 78 82
ATOM     79  C1  IDS B   5     -29.624  51.943  10.9400  0.00  0.00     0.000 C
ATOM     80  C2  IDS B   5     -29.195  52.478   9.6080  0.00  0.00     0.000 C
ATOM     81  C3  IDS B   5     -29.230  54.001   9.5150  0.00  0.00     0.000 C
ATOM     82  C4  IDS B   5     -28.639  54.675  10.7360  0.00  0.00     0.000 C
ATOM     83  C5  IDS B   5     -29.286  54.071  11.9420  0.00  0.00     0.000 C
ATOM     84  O5  IDS B   5     -29.012  52.683  11.9810  0.00  0.00     0.000 O
ATOM     85   O  IDS B   5     -30.577  54.395   9.4200  0.00  0.00     0.000 O
ATOM     87  HD  IDS B   5     -29.976  54.662   9.9830  0.00  0.00     0.000 HD
BRANCH 80 87
ATOM     87   O  IDS B   5     -27.895  52.093   9.3890  0.00  0.00     0.000 O
ATOM     88  @S  IDS B   5     -27.402  51.035   8.3990  0.00  0.00     0.000 S
ATOM     89   O  IDS B   5     -27.961  51.410   7.1510  0.00  0.00     0.000 OA
ATOM     90   O  IDS B   5     -25.984  51.104   8.4490  0.00  0.00     0.000 OA
ATOM     91   O  IDS B   5     -27.892  49.790   8.8780  0.00  0.00     0.000 OA
ENDBRANCH 80 87
BRANCH 83 92
ATOM     92 @CA  IDS B   5     -28.934  54.776  13.2460  0.00  0.00     0.000 C
ATOM     93   O  IDS B   5     -29.176  55.974  13.4050  0.00  0.00     0.000 OA
ATOM     94   O  IDS B   5     -28.391  54.157  14.1690  0.00  0.00     0.000 OA
ENDBRANCH 83 92
BRANCH 79 95
ATOM     95  O4  SGN B   6     -31.010  51.966  11.0240  0.00  0.00     0.000 O
BRANCH 95 99
ATOM     96  C1  SGN B   6     -33.859  50.861  13.8300  0.00  0.00     0.000 C
ATOM     97  C2  SGN B   6     -32.936  52.004  14.2330  0.00  0.00     0.000 C
ATOM     98  C3  SGN B   6     -32.386  52.600  12.9360  0.00  0.00     0.000 C
ATOM     99  C4  SGN B   6     -31.532  51.494  12.2530  0.00  0.00     0.000 C
ATOM    100  C5  SGN B   6     -32.493  50.304  11.9670  0.00  0.00     0.000 C
ATOM    101  O5  SGN B   6     -33.131  49.852  13.1580  0.00  0.00     0.000 O
BRANCH 97 104
ATOM    102   N  SGN B   6     -32.916  51.689  15.6650  0.00  0.00     0.000 N
ATOM    104  HD  SGN B   6     -33.727  51.635  15.9620  0.00  0.00     0.000 HD
ATOM    104 @NS  SGN B   6     -33.527  52.824  16.7100  0.00  0.00     0.000 S
ATOM    105   O  SGN B   6     -34.008  53.935  15.9190  0.00  0.00     0.000 OA
ATOM    106   O  SGN B   6     -34.588  52.180  17.4490  0.00  0.00     0.000 OA
ATOM    107   O  SGN B   6     -32.425  53.221  17.5580  0.00  0.00     0.000 OA
ENDBRANCH 97 104
BRANCH 100 108
ATOM    108   C  SGN B   6     -31.860  49.069  11.3360  0.00  0.00     0.000 C
ATOM    109   O  SGN B   6     -30.679  48.745  12.0270  0.00  0.00     0.000 O
ATOM    110  @S  SGN B   6     -29.719  47.545  11.6960  0.00  0.00     0.000 S
ATOM    111   O  SGN B   6     -29.639  47.488  10.2560  0.00  0.00     0.000 OA
ATOM    112   O  SGN B   6     -28.437  47.866  12.3030  0.00  0.00     0.000 OA
ATOM    113   O  SGN B   6     -30.344  46.375  12.2690  0.00  0.00     0.000 OA
ENDBRANCH 100 108
ENDBRANCH 95 99
ENDBRANCH 79 95
ENDBRANCH 78 82
ENDBRANCH 58 78
ENDBRANCH 57 61
ENDBRANCH 41 57
ENDBRANCH 40 44
ENDBRANCH 20 40
ENDBRANCH 19 23
ENDBRANCH 1 19
TORSDOF 22
ENDMDL
MODEL 3
REMARK VINA RESULT:      -7.6      4.913     13.788
ROOT
ATOM      1  C1  IDS B   1     -26.939  54.313  11.0480  0.00  0.00     0.000 C
ATOM      2  C2  IDS B   1     -27.319  53.071  10.2840  0.00  0.00     0.000 C
ATOM      3  C3  IDS B   1     -28.677  52.432  10.6570  0.00  0.00     0.000 C
ATOM      4  C4  IDS B   1     -29.731  53.463  11.2100  0.00  0.00     0.000 C
ATOM      5  C5  IDS B   1     -29.071  54.674  11.9120  0.00  0.00     0.000 C
ATOM      6  O5  IDS B   1     -28.043  55.193  11.1110  0.00  0.00     0.000 O
ATOM      7   O  IDS B   1     -28.414  51.409  11.6120  0.00  0.00     0.000 O
ATOM      9  HD  IDS B   1     -29.232  51.681  11.6980  0.00  0.00     0.000 HD
ATOM      9   O  IDS B   1     -30.473  53.947  10.1130  0.00  0.00     0.000 O
ATOM     11  HD  IDS B   1     -31.291  54.219  10.1980  0.00  0.00     0.000 HD
ENDROOT
BRANCH 2 11
ATOM     11   O  IDS B   1     -27.379  53.358   8.9290  0.00  0.00     0.000 O
ATOM     12  @S  IDS B   1     -26.877  52.418   7.8160  0.00  0.00     0.000 S
ATOM     13   O  IDS B   1     -25.849  51.630   8.4660  0.00  0.00     0.000 OA
ATOM     14   O  IDS B   1     -28.015  51.617   7.4020  0.00  0.00     0.000 OA
ATOM     15   O  IDS B   1     -26.383  53.282   6.7620  0.00  0.00     0.000 OA
ENDBRANCH 2 11
BRANCH 5 16
ATOM     16 @CA  IDS B   1     -30.002  55.801  12.3480  0.00  0.00     0.000 C
ATOM     17   O  IDS B   1     -31.199  55.793  12.0680  0.00  0.00     0.000 OA
ATOM     18   O  IDS B   1     -29.573  56.745  13.0070  0.00  0.00     0.000 OA
ENDBRANCH 5 16
BRANCH 1 19
ATOM     19  O4  SGN B   2     -26.532  53.922  12.3430  0.00  0.00     0.000 O
BRANCH 19 23
ATOM     20  C1  SGN B   2     -23.160  55.283  14.2230  0.00  0.00     0.000 C
ATOM     21  C2  SGN B   2     -24.493  55.434  14.9220  0.00  0.00     0.000 C
ATOM     22  C3  SGN B   2     -25.441  54.414  14.4030  0.00  0.00     0.000 C
ATOM     23  C4  SGN B   2     -25.613  54.762  12.9420  0.00  0.00     0.000 C
ATOM     24  C5  SGN B   2     -24.283  54.506  12.3210  0.00  0.00     0.000 C
ATOM     25  O5  SGN B   2     -23.362  55.405  12.8220  0.00  0.00     0.000 O
ATOM     26   O  SGN B   2     -26.649  54.525  15.0710  0.00  0.00     0.000 O
ATOM     28  HD  SGN B   2     -27.463  54.675  15.3250  0.00  0.00     0.000 HD
BRANCH 21 30
ATOM     28   N  SGN B   2     -23.541  56.299  15.5570  0.00  0.00     0.000 N
ATOM     30  HD  SGN B   2     -22.973  55.699  15.8160  0.00  0.00     0.000 HD
ATOM     30 @NS  SGN B   2     -23.821  56.688  17.1090  0.00  0.00     0.000 S
ATOM     31   O  SGN B   2     -24.930  55.934  17.5890  0.00  0.00     0.000 OA
ATOM     32   O  SGN B   2     -22.630  56.325  17.7610  0.00  0.00     0.000 OA
ATOM     33   O  SGN B   2     -24.101  58.074  17.1250  0.00  0.00     0.000 OA
ENDBRANCH 21 30
BRANCH 24 34
ATOM     34   C  SGN B   2     -24.239  54.625  10.8420  0.00  0.00     0.000 C
ATOM     35   O  SGN B   2     -23.467  55.732  10.5370  0.00  0.00     0.000 O
ATOM     36  @S  SGN B   2     -23.005  56.070   9.1240  0.00  0.00     0.000 S
ATOM     37   O  SGN B   2     -24.045  56.936   8.6060  0.00  0.00     0.000 OA
ATOM     38   O  SGN B   2     -21.721  56.719   9.2510  0.00  0.00     0.000 OA
ATOM     39   O  SGN B   2     -22.908  54.789   8.4380  0.00  0.00     0.000 OA
ENDBRANCH 24 34
BRANCH 20 40
ATOM     40  O4  IDS B   3     -22.575  54.058  14.5450  0.00  0.00     0.000 O
BRANCH 40 44
ATOM     41  C1  IDS B   3     -19.653  52.205  15.1200  0.00  0.00     0.000 C
ATOM     42  C2  IDS B   3     -19.614  53.732  15.1110  0.00  0.00     0.000 C
ATOM     43  C3  IDS B   3     -20.341  54.410  13.9330  0.00  0.00     0.000 C
ATOM     44  C4  IDS B   3     -21.629  53.685  13.6000  0.00  0.00     0.000 C
ATOM     45  C5  IDS B   3     -21.451  52.158  13.6080  0.00  0.00     0.000 C
ATOM     46  O5  IDS B   3     -20.962  51.738  14.8300  0.00  0.00     0.000 O
ATOM     47   O  IDS B   3     -19.509  54.383  12.7920  0.00  0.00     0.000 O
ATOM     49  HD  IDS B   3     -20.139  54.684  13.3050  0.00  0.00     0.000 HD
BRANCH 42 49
ATOM     49   O  IDS B   3     -20.210  54.199  16.2870  0.00  0.00     0.000 O
ATOM     50   O  IDS B   3     -18.250  53.754  17.5160  0.00  0.00     0.000 OA
ATOM     51   O  IDS B   3     -19.490  55.713  17.9950  0.00  0.00     0.000 OA
ATOM     52   O  IDS B   3     -20.374  53.586  18.5140  0.00  0.00     0.000 OA
ATOM     53  @S  IDS B   3     -19.539  54.325  17.6580  0.00  0.00     0.000 S
ENDBRANCH 42 49
BRANCH 45 54
ATOM     54 @CA  IDS B   3     -22.697  51.352  13.2480  0.00  0.00     0.000 C
ATOM     55   O  IDS B   3     -23.121  51.316  12.1250  0.00  0.00     0.000 OA
ATOM     56   O  IDS B   3     -23.276  50.715  14.0640  0.00  0.00     0.000 OA
ENDBRANCH 45 54
BRANCH 41 57
ATOM     57  O4  SGN B   4     -18.720  51.710  14.2170  0.00  0.00     0.000 O
BRANCH 57 61
ATOM     58  C1  SGN B   4     -16.233  48.466  13.6770  0.00  0.00     0.000 C
ATOM     59  C2  SGN B   4     -17.722  48.165  13.6430  0.00  0.00     0.000 C
ATOM     60  C3  SGN B   4     -18.508  49.460  13.4600  0.00  0.00     0.000 C
ATOM     61  C4  SGN B   4     -18.151  50.480  14.5470  0.00  0.00     0.000 C
ATOM     62  C5  SGN B   4     -16.633  50.641  14.5580  0.00  0.00     0.000 C
ATOM     63  O5  SGN B   4     -15.986  49.393  14.7210  0.00  0.00     0.000 O
ATOM     64   O  SGN B   4     -19.888  49.170  13.5510  0.00  0.00     0.000 O
ATOM     66  HD  SGN B   4     -20.324  49.572  14.1830  0.00  0.00     0.000 HD
BRANCH 59 68
ATOM     66   N  SGN B   4     -17.980  47.246  12.5530  0.00  0.00     0.000 N
ATOM     68  HD  SGN B   4     -18.436  47.652  13.1670  0.00  0.00     0.000 HD
ATOM     68 @NS  SGN B   4     -17.568  45.665  12.6980  0.00  0.00     0.000 S
ATOM     69   O  SGN B   4     -16.327  45.587  13.4100  0.00  0.00     0.000 OA
ATOM     70   O  SGN B   4     -18.631  45.041  13.4330  0.00  0.00     0.000 OA
ATOM     71   O  SGN B   4     -17.462  45.201  11.3480  0.00  0.00     0.000 OA
ENDBRANCH 59 68
BRANCH 62 72
ATOM     72   C  SGN B   4     -16.142  51.538  15.6840  0.00  0.00     0.000 C
ATOM     73   O  SGN B   4     -16.452  50.861  16.8650  0.00  0.00     0.000 O
ATOM     74  @S  SGN B   4     -15.681  50.898  18.1960  0.00  0.00     0.000 S
ATOM     75   O  SGN B   4     -15.635  52.248  18.6200  0.00  0.00     0.000 OA
ATOM     76   O  SGN B   4     -16.459  50.079  19.0750  0.00  0.00     0.000 OA
ATOM     77   O  SGN B   4     -14.379  50.401  17.9040  0.00  0.00     0.000 OA
ENDBRANCH 62 72
BRANCH 58 78
ATOM     78  O4  IDS B   5     -15.804  48.948  12.4200  0.00  0.00     0.000 O
BRANCH 78 82
ATOM     79  C1  IDS B   5     -14.595  49.138   9.1790  0.00  0.00     0.000 C
ATOM     80  C2  IDS B   5     -15.173  47.846   9.6710  0.00  0.00     0.000 C
ATOM     81  C3  IDS B   5     -14.611  47.390  11.0140  0.00  0.00     0.000 C
ATOM     82  C4  IDS B   5     -14.520  48.517  12.0230  0.00  0.00     0.000 C
ATOM     83  C5  IDS B   5     -13.813  49.657  11.3620  0.00  0.00     0.000 C
ATOM     84  O5  IDS B   5     -14.553  50.083  10.2340  0.00  0.00     0.000 O
ATOM     85   O  IDS B   5     -13.307  46.910  10.7930  0.00  0.00     0.000 O
ATOM     87  HD  IDS B   5     -13.571  47.512  11.3570  0.00  0.00     0.000 HD
BRANCH 80 87
ATOM     87   O  IDS B   5     -16.525  48.017   9.8400  0.00  0.00     0.000 O
ATOM     88  @S  IDS B   5     -17.566  48.271   8.7460  0.00  0.00     0.000 S
ATOM     89   O  IDS B   5     -17.374  47.226   7.8060  0.00  0.00     0.000 OA
ATOM     90   O  IDS B   5     -18.823  48.238   9.4070  0.00  0.00     0.000 OA
ATOM     91   O  IDS B   5     -17.274  49.557   8.2170  0.00  0.00     0.000 OA
ENDBRANCH 80 87
BRANCH 83 92
ATOM     92 @CA  IDS B   5     -13.477  50.803  12.3100  0.00  0.00     0.000 C
ATOM     93   O  IDS B   5     -13.562  51.977  11.9410  0.00  0.00     0.000 OA
ATOM     94   O  IDS B   5     -13.107  50.574  13.4670  0.00  0.00     0.000 OA
ENDBRANCH 83 92
BRANCH 79 95
ATOM     95  O4  SGN B   6     -13.340  48.906   8.6320  0.00  0.00     0.000 O
BRANCH 95 99
ATOM     96  C1  SGN B   6     -10.951  51.120   6.0630  0.00  0.00     0.000 C
ATOM     97  C2  SGN B   6     -12.003  51.905   6.8370  0.00  0.00     0.000 C
ATOM     98  C3  SGN B   6     -12.358  51.066   8.0650  0.00  0.00     0.000 C
ATOM     99  C4  SGN B   6     -13.008  49.751   7.5450  0.00  0.00     0.000 C
ATOM    100  C5  SGN B   6     -11.937  49.043   6.6660  0.00  0.00     0.000 C
ATOM    101  O5  SGN B   6     -11.486  49.890   5.6140  0.00  0.00     0.000 O
BRANCH 97 104
ATOM    102   N  SGN B   6     -12.740  53.068   6.3330  0.00  0.00     0.000 N
ATOM    104  HD  SGN B   6     -12.420  53.304   5.5630  0.00  0.00     0.000 HD
ATOM    104 @NS  SGN B   6     -11.902  54.488   6.1490  0.00  0.00     0.000 S
ATOM    105   O  SGN B   6     -10.527  54.238   6.5210  0.00  0.00     0.000 OA
ATOM    106   O  SGN B   6     -12.032  54.871   4.7620  0.00  0.00     0.000 OA
ATOM    107   O  SGN B   6     -12.524  55.438   7.0450  0.00  0.00     0.000 OA
ENDBRANCH 97 104
BRANCH 100 108
ATOM    108   C  SGN B   6     -12.370  47.742   6.0020  0.00  0.00     0.000 C
ATOM    109   O  SGN B   6     -12.689  46.796   6.9910  0.00  0.00     0.000 O
ATOM    110  @S  SGN B   6     -13.174  45.323   6.7340  0.00  0.00     0.000 S
ATOM    111   O  SGN B   6     -12.384  44.833   5.6290  0.00  0.00     0.000 OA
ATOM    112   O  SGN B   6     -12.917  44.585   7.9600  0.00  0.00     0.000 OA
ATOM    113   O  SGN B   6     -14.580  45.424   6.4140  0.00  0.00     0.000 OA
ENDBRANCH 100 108
ENDBRANCH 95 99
ENDBRANCH 79 95
ENDBRANCH 78 82
ENDBRANCH 58 78
ENDBRANCH 57 61
ENDBRANCH 41 57
ENDBRANCH 40 44
ENDBRANCH 20 40
ENDBRANCH 19 23
ENDBRANCH 1 19
TORSDOF 22
ENDMDL
MODEL 4
REMARK VINA RESULT:      -6.1      1.767      2.564
ROOT
ATOM      1  C1  IDS B   1     -15.697  59.663  15.9830  0.00  0.00     0.000 C
ATOM      2  C2  IDS B   1     -15.001  60.452  14.9060  0.00  0.00     0.000 C
ATOM      3  C3  IDS B   1     -15.528  61.887  14.6650  0.00  0.00     0.000 C
ATOM      4  C4  IDS B   1     -16.171  62.548  15.9420  0.00  0.00     0.000 C
ATOM      5  C5  IDS B   1     -16.776  61.505  16.9130  0.00  0.00     0.000 C
ATOM      6  O5  IDS B   1     -15.861  60.465  17.1350  0.00  0.00     0.000 O
ATOM      7   O  IDS B   1     -16.468  61.818  13.5970  0.00  0.00     0.000 O
ATOM      9  HD  IDS B   1     -16.635  62.514  14.0850  0.00  0.00     0.000 HD
ATOM      9   O  IDS B   1     -15.150  63.239  16.6260  0.00  0.00     0.000 O
ATOM     11  HD  IDS B   1     -15.317  63.935  17.1140  0.00  0.00     0.000 HD
ENDROOT
BRANCH 2 11
ATOM     11   O  IDS B   1     -13.655  60.576  15.2150  0.00  0.00     0.000 O
ATOM     12  @S  IDS B   1     -12.540  59.693  14.6220  0.00  0.00     0.000 S
ATOM     13   O  IDS B   1     -13.218  58.456  14.2880  0.00  0.00     0.000 OA
ATOM     14   O  IDS B   1     -12.037  60.387  13.4500  0.00  0.00     0.000 OA
ATOM     15   O  IDS B   1     -11.545  59.559  15.6670  0.00  0.00     0.000 OA
ENDBRANCH 2 11
BRANCH 5 16
ATOM     16 @CA  IDS B   1     -17.288  62.034  18.2490  0.00  0.00     0.000 C
ATOM     17   O  IDS B   1     -16.535  62.563  19.0640  0.00  0.00     0.000 OA
ATOM     18   O  IDS B   1     -18.480  61.954  18.5360  0.00  0.00     0.000 OA
ENDBRANCH 5 16
BRANCH 1 19
ATOM     19  O4  SGN B   2     -16.948  59.244  15.4790  0.00  0.00     0.000 O
BRANCH 19 23
ATOM     20  C1  SGN B   2     -19.012  55.715  15.6760  0.00  0.00     0.000 C
ATOM     21  C2  SGN B   2     -18.671  56.430  16.9650  0.00  0.00     0.000 C
ATOM     22  C3  SGN B   2     -18.478  57.878  16.6900  0.00  0.00     0.000 C
ATOM     23  C4  SGN B   2     -17.283  57.935  15.7670  0.00  0.00     0.000 C
ATOM     24  C5  SGN B   2     -17.733  57.287  14.5040  0.00  0.00     0.000 C
ATOM     25  O5  SGN B   2     -17.973  55.946  14.7350  0.00  0.00     0.000 O
ATOM     26   O  SGN B   2     -18.207  58.540  17.8750  0.00  0.00     0.000 O
ATOM     28  HD  SGN B   2     -17.856  58.957  18.5480  0.00  0.00     0.000 HD
BRANCH 21 30
ATOM     28   N  SGN B   2     -19.832  55.968  17.6680  0.00  0.00     0.000 N
ATOM     30  HD  SGN B   2     -19.838  56.552  18.3070  0.00  0.00     0.000 HD
ATOM     30 @NS  SGN B   2     -19.609  54.788  18.7630  0.00  0.00     0.000 S
ATOM     31   O  SGN B   2     -18.213  54.545  18.9130  0.00  0.00     0.000 OA
ATOM     32   O  SGN B   2     -20.169  55.317  19.9380  0.00  0.00     0.000 OA
ATOM     33   O  SGN B   2     -20.274  53.647  18.2560  0.00  0.00     0.000 OA
ENDBRANCH 21 30
BRANCH 24 34
ATOM     34   C  SGN B   2     -16.773  57.362  13.3740  0.00  0.00     0.000 C
ATOM     35   O  SGN B   2     -17.201  58.370  12.5290  0.00  0.00     0.000 O
ATOM     36  @S  SGN B   2     -16.370  58.902  11.3670  0.00  0.00     0.000 S
ATOM     37   O  SGN B   2     -16.780  58.092  10.2360  0.00  0.00     0.000 OA
ATOM     38   O  SGN B   2     -16.700  60.301  11.2260  0.00  0.00     0.000 OA
ATOM     39   O  SGN B   2     -14.984  58.699  11.7650  0.00  0.00     0.000 OA
ENDBRANCH 24 34
BRANCH 20 40
ATOM     40  O4  IDS B   3     -20.243  56.149  15.1870  0.00  0.00     0.000 O
BRANCH 40 44
ATOM     41  C1  IDS B   3     -23.555  56.198  14.0330  0.00  0.00     0.000 C
ATOM     42  C2  IDS B   3     -23.213  55.562  15.3780  0.00  0.00     0.000 C
ATOM     43  C3  IDS B   3     -22.000  54.610  15.3760  0.00  0.00     0.000 C
ATOM     44  C4  IDS B   3     -20.894  55.143  14.4870  0.00  0.00     0.000 C
ATOM     45  C5  IDS B   3     -21.436  55.691  13.1570  0.00  0.00     0.000 C
ATOM     46  O5  IDS B   3     -22.380  56.671  13.3910  0.00  0.00     0.000 O
ATOM     47   O  IDS B   3     -22.397  53.348  14.8820  0.00  0.00     0.000 O
ATOM     49  HD  IDS B   3     -21.914  53.902  15.3390  0.00  0.00     0.000 HD
BRANCH 42 49
ATOM     49   O  IDS B   3     -22.934  56.582  16.2940  0.00  0.00     0.000 O
ATOM     50   O  IDS B   3     -24.793  55.978  17.6090  0.00  0.00     0.000 OA
ATOM     51   O  IDS B   3     -22.790  56.641  18.6820  0.00  0.00     0.000 OA
ATOM     52   O  IDS B   3     -24.073  58.214  17.4770  0.00  0.00     0.000 OA
ATOM     53  @S  IDS B   3     -23.690  56.867  17.5950  0.00  0.00     0.000 S
ENDBRANCH 42 49
BRANCH 45 54
ATOM     54 @CA  IDS B   3     -20.379  56.216  12.1880  0.00  0.00     0.000 C
ATOM     55   O  IDS B   3     -19.521  55.502  11.7430  0.00  0.00     0.000 OA
ATOM     56   O  IDS B   3     -20.383  57.344  11.8230  0.00  0.00     0.000 OA
ENDBRANCH 45 54
BRANCH 41 57
ATOM     57  O4  SGN B   4     -24.238  55.280  13.2440  0.00  0.00     0.000 O
BRANCH 57 61
ATOM     58  C1  SGN B   4     -27.150  55.420  10.3280  0.00  0.00     0.000 C
ATOM     59  C2  SGN B   4     -25.731  55.202   9.8290  0.00  0.00     0.000 C
ATOM     60  C3  SGN B   4     -24.833  54.784  10.9890  0.00  0.00     0.000 C
ATOM     61  C4  SGN B   4     -24.892  55.806  12.1300  0.00  0.00     0.000 C
ATOM     62  C5  SGN B   4     -26.360  56.019  12.4920  0.00  0.00     0.000 C
ATOM     63  O5  SGN B   4     -27.119  56.394  11.3590  0.00  0.00     0.000 O
ATOM     64   O  SGN B   4     -23.501  54.703  10.5270  0.00  0.00     0.000 O
ATOM     66  HD  SGN B   4     -22.927  55.224  10.9140  0.00  0.00     0.000 HD
BRANCH 59 68
ATOM     66   N  SGN B   4     -25.544  55.455   8.4150  0.00  0.00     0.000 N
ATOM     68  HD  SGN B   4     -25.964  55.820   9.0790  0.00  0.00     0.000 HD
ATOM     68 @NS  SGN B   4     -26.328  54.536   7.3060  0.00  0.00     0.000 S
ATOM     69   O  SGN B   4     -26.362  53.186   7.7850  0.00  0.00     0.000 OA
ATOM     70   O  SGN B   4     -27.650  55.084   7.1960  0.00  0.00     0.000 OA
ATOM     71   O  SGN B   4     -25.552  54.681   6.1130  0.00  0.00     0.000 OA
ENDBRANCH 59 68
BRANCH 62 72
ATOM     72   C  SGN B   4     -26.559  57.111  13.5320  0.00  0.00     0.000 C
ATOM     73   O  SGN B   4     -26.438  58.316  12.8370  0.00  0.00     0.000 O
ATOM     74  @S  SGN B   4     -27.148  59.647  13.1410  0.00  0.00     0.000 S
ATOM     75   O  SGN B   4     -26.802  60.019  14.4620  0.00  0.00     0.000 OA
ATOM     76   O  SGN B   4     -26.624  60.555  12.1660  0.00  0.00     0.000 OA
ATOM     77   O  SGN B   4     -28.542  59.379  13.0250  0.00  0.00     0.000 OA
ENDBRANCH 62 72
BRANCH 58 78
ATOM     78  O4  IDS B   5     -27.707  54.196  10.7630  0.00  0.00     0.000 O
BRANCH 78 82
ATOM     79  C1  IDS B   5     -29.515  51.315  11.4150  0.00  0.00     0.000 C
ATOM     80  C2  IDS B   5     -29.031  51.577  10.0210  0.00  0.00     0.000 C
ATOM     81  C3  IDS B   5     -29.364  52.974   9.5050  0.00  0.00     0.000 C
ATOM     82  C4  IDS B   5     -29.091  54.056  10.5300  0.00  0.00     0.000 C
ATOM     83  C5  IDS B   5     -29.755  53.646  11.8060  0.00  0.00     0.000 C
ATOM     84  O5  IDS B   5     -29.210  52.418  12.2490  0.00  0.00     0.000 O
ATOM     85   O  IDS B   5     -30.739  53.006   9.2080  0.00  0.00     0.000 O
ATOM     87  HD  IDS B   5     -30.285  53.540   9.7160  0.00  0.00     0.000 HD
BRANCH 80 87
ATOM     87   O  IDS B   5     -27.663  51.463  10.0120  0.00  0.00     0.000 O
ATOM     88  @S  IDS B   5     -26.838  50.318   9.4190  0.00  0.00     0.000 S
ATOM     89   O  IDS B   5     -27.294  50.191   8.0820  0.00  0.00     0.000 OA
ATOM     90   O  IDS B   5     -25.483  50.729   9.5370  0.00  0.00     0.000 OA
ATOM     91   O  IDS B   5     -27.120  49.176  10.2150  0.00  0.00     0.000 OA
ENDBRANCH 80 87
BRANCH 83 92
ATOM     92 @CA  IDS B   5     -29.730  54.723  12.8840  0.00  0.00     0.000 C
ATOM     93   O  IDS B   5     -29.240  54.499  13.9940  0.00  0.00     0.000 OA
ATOM     94   O  IDS B   5     -30.206  55.843  12.6660  0.00  0.00     0.000 OA
ENDBRANCH 83 92
BRANCH 79 95
ATOM     95  O4  SGN B   6     -30.875  51.035  11.3890  0.00  0.00     0.000 O
BRANCH 95 99
ATOM     96  C1  SGN B   6     -33.705  49.692  14.1080  0.00  0.00     0.000 C
ATOM     97  C2  SGN B   6     -32.915  50.926  14.5250  0.00  0.00     0.000 C
ATOM     98  C3  SGN B   6     -32.378  51.555  13.2380  0.00  0.00     0.000 C
ATOM     99  C4  SGN B   6     -31.394  50.530  12.6060  0.00  0.00     0.000 C
ATOM    100  C5  SGN B   6     -32.220  49.247  12.3060  0.00  0.00     0.000 C
ATOM    101  O5  SGN B   6     -32.855  48.751  13.4810  0.00  0.00     0.000 O
BRANCH 97 104
ATOM    102   N  SGN B   6     -32.762  50.751  15.9720  0.00  0.00     0.000 N
ATOM    104  HD  SGN B   6     -33.508  50.469  16.3110  0.00  0.00     0.000 HD
ATOM    104 @NS  SGN B   6     -33.678  51.717  16.9630  0.00  0.00     0.000 S
ATOM    105   O  SGN B   6     -34.505  52.552  16.1200  0.00  0.00     0.000 OA
ATOM    106   O  SGN B   6     -34.462  50.835  17.7960  0.00  0.00     0.000 OA
ATOM    107   O  SGN B   6     -32.739  52.509  17.7280  0.00  0.00     0.000 OA
ENDBRANCH 97 104
BRANCH 100 108
ATOM    108   C  SGN B   6     -31.445  48.072  11.7210  0.00  0.00     0.000 C
ATOM    109   O  SGN B   6     -30.258  47.886  12.4520  0.00  0.00     0.000 O
ATOM    110  @S  SGN B   6     -29.171  46.786  12.1740  0.00  0.00     0.000 S
ATOM    111   O  SGN B   6     -29.042  46.709  10.7380  0.00  0.00     0.000 OA
ATOM    112   O  SGN B   6     -27.947  47.248  12.8100  0.00  0.00     0.000 OA
ATOM    113   O  SGN B   6     -29.689  45.568  12.7550  0.00  0.00     0.000 OA
ENDBRANCH 100 108
ENDBRANCH 95 99
ENDBRANCH 79 95
ENDBRANCH 78 82
ENDBRANCH 58 78
ENDBRANCH 57 61
ENDBRANCH 41 57
ENDBRANCH 40 44
ENDBRANCH 20 40
ENDBRANCH 19 23
ENDBRANCH 1 19
TORSDOF 22
ENDMDL
MODEL 5
REMARK VINA RESULT:      -5.5      4.531     12.467
ROOT
ATOM      1  C1  IDS B   1     -25.754  54.712  11.2280  0.00  0.00     0.000 C
ATOM      2  C2  IDS B   1     -24.786  55.855  11.3870  0.00  0.00     0.000 C
ATOM      3  C3  IDS B   1     -23.914  56.185  10.1520  0.00  0.00     0.000 C
ATOM      4  C4  IDS B   1     -24.593  55.813   8.7810  0.00  0.00     0.000 C
ATOM      5  C5  IDS B   1     -25.584  54.631   8.9070  0.00  0.00     0.000 C
ATOM      6  O5  IDS B   1     -26.441  54.834   9.9990  0.00  0.00     0.000 O
ATOM      7   O  IDS B   1     -22.677  55.500  10.3130  0.00  0.00     0.000 O
ATOM      9  HD  IDS B   1     -22.815  55.654   9.4720  0.00  0.00     0.000 HD
ATOM      9   O  IDS B   1     -25.316  56.941   8.3400  0.00  0.00     0.000 O
ATOM     11  HD  IDS B   1     -25.454  57.095   7.4990  0.00  0.00     0.000 HD
ENDROOT
BRANCH 2 11
ATOM     11   O  IDS B   1     -25.479  57.013  11.6990  0.00  0.00     0.000 O
ATOM     12  @S  IDS B   1     -24.818  58.382  11.9570  0.00  0.00     0.000 S
ATOM     13   O  IDS B   1     -23.489  58.043  12.4240  0.00  0.00     0.000 OA
ATOM     14   O  IDS B   1     -24.800  59.081  10.6850  0.00  0.00     0.000 OA
ATOM     15   O  IDS B   1     -25.645  59.039  12.9490  0.00  0.00     0.000 OA
ENDBRANCH 2 11
BRANCH 5 16
ATOM     16 @CA  IDS B   1     -26.404  54.292   7.6660  0.00  0.00     0.000 C
ATOM     17   O  IDS B   1     -26.437  53.153   7.2060  0.00  0.00     0.000 OA
ATOM     18   O  IDS B   1     -27.067  55.159   7.1010  0.00  0.00     0.000 OA
ENDBRANCH 5 16
BRANCH 1 19
ATOM     19  O4  SGN B   2     -25.020  53.507  11.2770  0.00  0.00     0.000 O
BRANCH 19 23
ATOM     20  C1  SGN B   2     -25.851  49.900  13.0270  0.00  0.00     0.000 C
ATOM     21  C2  SGN B   2     -26.283  50.130  11.5950  0.00  0.00     0.000 C
ATOM     22  C3  SGN B   2     -25.424  51.177  10.9820  0.00  0.00     0.000 C
ATOM     23  C4  SGN B   2     -25.712  52.424  11.7860  0.00  0.00     0.000 C
ATOM     24  C5  SGN B   2     -25.183  52.141  13.1490  0.00  0.00     0.000 C
ATOM     25  O5  SGN B   2     -25.927  51.132  13.7300  0.00  0.00     0.000 O
ATOM     26   O  SGN B   2     -25.791  51.359   9.6600  0.00  0.00     0.000 O
ATOM     28  HD  SGN B   2     -26.101  51.634   8.9000  0.00  0.00     0.000 HD
BRANCH 21 30
ATOM     28   N  SGN B   2     -27.472  49.349  11.7710  0.00  0.00     0.000 N
ATOM     30  HD  SGN B   2     -27.262  48.958  12.5140  0.00  0.00     0.000 HD
ATOM     30 @NS  SGN B   2     -27.518  47.901  11.0340  0.00  0.00     0.000 S
ATOM     31   O  SGN B   2     -26.244  47.627  10.4580  0.00  0.00     0.000 OA
ATOM     32   O  SGN B   2     -27.814  47.009  12.0790  0.00  0.00     0.000 OA
ATOM     33   O  SGN B   2     -28.518  47.995  10.0390  0.00  0.00     0.000 OA
ENDBRANCH 21 30
BRANCH 24 34
ATOM     34   C  SGN B   2     -25.207  53.288  14.0920  0.00  0.00     0.000 C
ATOM     35   O  SGN B   2     -23.901  53.709  14.2700  0.00  0.00     0.000 O
ATOM     36  @S  SGN B   2     -23.525  54.995  14.9960  0.00  0.00     0.000 S
ATOM     37   O  SGN B   2     -23.340  54.585  16.3740  0.00  0.00     0.000 OA
ATOM     38   O  SGN B   2     -22.318  55.487  14.3720  0.00  0.00     0.000 OA
ATOM     39   O  SGN B   2     -24.654  55.892  14.7950  0.00  0.00     0.000 OA
ENDBRANCH 24 34
BRANCH 20 40
ATOM     40  O4  IDS B   3     -24.562  49.371  13.0690  0.00  0.00     0.000 O
BRANCH 40 44
ATOM     41  C1  IDS B   3     -21.904  47.158  13.6580  0.00  0.00     0.000 C
ATOM     42  C2  IDS B   3     -23.209  46.657  13.0410  0.00  0.00     0.000 C
ATOM     43  C3  IDS B   3     -24.500  47.127  13.7400  0.00  0.00     0.000 C
ATOM     44  C4  IDS B   3     -24.380  48.569  14.1880  0.00  0.00     0.000 C
ATOM     45  C5  IDS B   3     -23.016  48.863  14.8310  0.00  0.00     0.000 C
ATOM     46  O5  IDS B   3     -21.994  48.543  13.9580  0.00  0.00     0.000 O
ATOM     47   O  IDS B   3     -24.733  46.326  14.8800  0.00  0.00     0.000 O
ATOM     49  HD  IDS B   3     -24.948  46.842  14.2190  0.00  0.00     0.000 HD
BRANCH 42 49
ATOM     49   O  IDS B   3     -23.273  47.100  11.7160  0.00  0.00     0.000 O
ATOM     50   O  IDS B   3     -21.811  45.389  11.0210  0.00  0.00     0.000 OA
ATOM     51   O  IDS B   3     -23.636  45.979   9.6330  0.00  0.00     0.000 OA
ATOM     52   O  IDS B   3     -21.838  47.478   9.9390  0.00  0.00     0.000 OA
ATOM     53  @S  IDS B   3     -22.603  46.444  10.5050  0.00  0.00     0.000 S
ENDBRANCH 42 49
BRANCH 45 54
ATOM     54 @CA  IDS B   3     -22.827  50.290  15.3420  0.00  0.00     0.000 C
ATOM     55   O  IDS B   3     -22.228  51.114  14.7050  0.00  0.00     0.000 OA
ATOM     56   O  IDS B   3     -23.286  50.639  16.3790  0.00  0.00     0.000 OA
ENDBRANCH 45 54
BRANCH 41 57
ATOM     57  O4  SGN B   4     -21.604  46.406  14.7870  0.00  0.00     0.000 O
BRANCH 57 61
ATOM     58  C1  SGN B   4     -17.678  47.635  15.0630  0.00  0.00     0.000 C
ATOM     59  C2  SGN B   4     -17.948  46.516  14.0710  0.00  0.00     0.000 C
ATOM     60  C3  SGN B   4     -19.444  46.431  13.7810  0.00  0.00     0.000 C
ATOM     61  C4  SGN B   4     -20.248  46.260  15.0750  0.00  0.00     0.000 C
ATOM     62  C5  SGN B   4     -19.837  47.375  16.0320  0.00  0.00     0.000 C
ATOM     63  O5  SGN B   4     -18.436  47.388  16.2360  0.00  0.00     0.000 O
ATOM     64   O  SGN B   4     -19.683  45.312  12.9520  0.00  0.00     0.000 O
ATOM     66  HD  SGN B   4     -20.209  44.703  13.2710  0.00  0.00     0.000 HD
BRANCH 59 68
ATOM     66   N  SGN B   4     -16.749  45.798  13.6910  0.00  0.00     0.000 N
ATOM     68  HD  SGN B   4     -17.080  46.152  14.4080  0.00  0.00     0.000 HD
ATOM     68 @NS  SGN B   4     -15.579  46.553  12.8240  0.00  0.00     0.000 S
ATOM     69   O  SGN B   4     -16.212  47.424  11.8780  0.00  0.00     0.000 OA
ATOM     70   O  SGN B   4     -14.797  47.293  13.7710  0.00  0.00     0.000 OA
ATOM     71   O  SGN B   4     -14.857  45.487  12.1990  0.00  0.00     0.000 OA
ENDBRANCH 59 68
BRANCH 62 72
ATOM     72   C  SGN B   4     -20.476  47.241  17.4060  0.00  0.00     0.000 C
ATOM     73   O  SGN B   4     -20.355  45.891  17.7450  0.00  0.00     0.000 O
ATOM     74  @S  SGN B   4     -20.193  45.290  19.1520  0.00  0.00     0.000 S
ATOM     75   O  SGN B   4     -21.313  45.699  19.9170  0.00  0.00     0.000 OA
ATOM     76   O  SGN B   4     -20.175  43.876  18.9290  0.00  0.00     0.000 OA
ATOM     77   O  SGN B   4     -18.983  45.834  19.6700  0.00  0.00     0.000 OA
ENDBRANCH 62 72
BRANCH 58 78
ATOM     78  O4  IDS B   5     -17.982  48.886  14.4810  0.00  0.00     0.000 O
BRANCH 78 82
ATOM     79  C1  IDS B   5     -18.331  52.162  13.4110  0.00  0.00     0.000 C
ATOM     80  C2  IDS B   5     -17.378  51.255  12.6950  0.00  0.00     0.000 C
ATOM     81  C3  IDS B   5     -16.419  50.511  13.6210  0.00  0.00     0.000 C
ATOM     82  C4  IDS B   5     -17.112  49.937  14.8400  0.00  0.00     0.000 C
ATOM     83  C5  IDS B   5     -17.914  51.036  15.4620  0.00  0.00     0.000 C
ATOM     84  O5  IDS B   5     -18.879  51.499  14.5360  0.00  0.00     0.000 O
ATOM     85   O  IDS B   5     -15.456  51.433  14.0720  0.00  0.00     0.000 O
ATOM     87  HD  IDS B   5     -15.965  50.912  14.5410  0.00  0.00     0.000 HD
BRANCH 80 87
ATOM     87   O  IDS B   5     -18.109  50.303  12.0290  0.00  0.00     0.000 O
ATOM     88  @S  IDS B   5     -18.270  50.158  10.5130  0.00  0.00     0.000 S
ATOM     89   O  IDS B   5     -16.947  50.125  10.0040  0.00  0.00     0.000 OA
ATOM     90   O  IDS B   5     -18.999  48.953  10.3240  0.00  0.00     0.000 OA
ATOM     91   O  IDS B   5     -19.003  51.298  10.0850  0.00  0.00     0.000 OA
ENDBRANCH 80 87
BRANCH 83 92
ATOM     92 @CA  IDS B   5     -18.524  50.664  16.8080  0.00  0.00     0.000 C
ATOM     93   O  IDS B   5     -17.824  50.212  17.7180  0.00  0.00     0.000 OA
ATOM     94   O  IDS B   5     -19.735  50.807  17.0120  0.00  0.00     0.000 OA
ENDBRANCH 83 92
BRANCH 79 95
ATOM     95  O4  SGN B   6     -17.678  53.337  13.7610  0.00  0.00     0.000 O
BRANCH 95 99
ATOM     96  C1  SGN B   6     -18.773  56.981  15.4160  0.00  0.00     0.000 C
ATOM     97  C2  SGN B   6     -19.236  55.740  16.1700  0.00  0.00     0.000 C
ATOM     98  C3  SGN B   6     -18.306  54.601  15.7500  0.00  0.00     0.000 C
ATOM     99  C4  SGN B   6     -18.531  54.366  14.2290  0.00  0.00     0.000 C
ATOM    100  C5  SGN B   6     -18.157  55.695  13.5130  0.00  0.00     0.000 C
ATOM    101  O5  SGN B   6     -18.913  56.790  14.0210  0.00  0.00     0.000 O
BRANCH 97 104
ATOM    102   N  SGN B   6     -20.443  55.509  16.9690  0.00  0.00     0.000 N
ATOM    104  HD  SGN B   6     -20.949  56.212  16.9420  0.00  0.00     0.000 HD
ATOM    104 @NS  SGN B   6     -20.669  56.458  18.3120  0.00  0.00     0.000 S
ATOM    105   O  SGN B   6     -19.565  57.390  18.3810  0.00  0.00     0.000 OA
ATOM    106   O  SGN B   6     -21.938  57.127  18.1400  0.00  0.00     0.000 OA
ATOM    107   O  SGN B   6     -20.668  55.557  19.4420  0.00  0.00     0.000 OA
ENDBRANCH 97 104
BRANCH 100 108
ATOM    108   C  SGN B   6     -18.348  55.718  12.0010  0.00  0.00     0.000 C
ATOM    109   O  SGN B   6     -19.200  56.782  11.6550  0.00  0.00     0.000 O
ATOM    110  @S  SGN B   6     -19.659  57.155  10.1990  0.00  0.00     0.000 S
ATOM    111   O  SGN B   6     -19.917  55.902   9.5310  0.00  0.00     0.000 OA
ATOM    112   O  SGN B   6     -20.864  57.957  10.3420  0.00  0.00     0.000 OA
ATOM    113   O  SGN B   6     -18.556  57.884   9.6150  0.00  0.00     0.000 OA
ENDBRANCH 100 108
ENDBRANCH 95 99
ENDBRANCH 79 95
ENDBRANCH 78 82
ENDBRANCH 58 78
ENDBRANCH 57 61
ENDBRANCH 41 57
ENDBRANCH 40 44
ENDBRANCH 20 40
ENDBRANCH 19 23
ENDBRANCH 1 19
TORSDOF 22
ENDMDL
MODEL 6
REMARK VINA RESULT:      -5.2      3.822     13.098
ROOT
ATOM      1  C1  IDS B   1     -31.938  52.087  11.4910  0.00  0.00     0.000 C
ATOM      2  C2  IDS B   1     -32.360  50.827  12.2010  0.00  0.00     0.000 C
ATOM      3  C3  IDS B   1     -33.293  51.013  13.4210  0.00  0.00     0.000 C
ATOM      4  C4  IDS B   1     -34.194  52.301  13.3380  0.00  0.00     0.000 C
ATOM      5  C5  IDS B   1     -33.542  53.434  12.5070  0.00  0.00     0.000 C
ATOM      6  O5  IDS B   1     -33.059  52.924  11.2940  0.00  0.00     0.000 O
ATOM      7   O  IDS B   1     -32.469  51.040  14.5820  0.00  0.00     0.000 O
ATOM      9  HD  IDS B   1     -33.212  51.454  14.7450  0.00  0.00     0.000 HD
ATOM      9   O  IDS B   1     -35.402  51.940  12.7060  0.00  0.00     0.000 O
ATOM     11  HD  IDS B   1     -36.145  52.354  12.8690  0.00  0.00     0.000 HD
ENDROOT
BRANCH 2 11
ATOM     11   O  IDS B   1     -33.032  49.997  11.3170  0.00  0.00     0.000 O
ATOM     12  @S  IDS B   1     -32.668  48.523  11.0570  0.00  0.00     0.000 S
ATOM     13   O  IDS B   1     -31.254  48.455  11.3670  0.00  0.00     0.000 OA
ATOM     14   O  IDS B   1     -33.476  47.728  11.9640  0.00  0.00     0.000 OA
ATOM     15   O  IDS B   1     -32.981  48.278   9.6630  0.00  0.00     0.000 OA
ENDBRANCH 2 11
BRANCH 5 16
ATOM     16 @CA  IDS B   1     -34.401  54.667  12.2420  0.00  0.00     0.000 C
ATOM     17   O  IDS B   1     -33.931  55.801  12.2860  0.00  0.00     0.000 OA
ATOM     18   O  IDS B   1     -35.592  54.549  11.9640  0.00  0.00     0.000 OA
ENDBRANCH 5 16
BRANCH 1 19
ATOM     19  O4  SGN B   2     -30.963  52.729  12.2860  0.00  0.00     0.000 O
BRANCH 19 23
ATOM     20  C1  SGN B   2     -28.136  55.512  11.2760  0.00  0.00     0.000 C
ATOM     21  C2  SGN B   2     -29.432  55.985  11.8960  0.00  0.00     0.000 C
ATOM     22  C3  SGN B   2     -30.029  54.883  12.6940  0.00  0.00     0.000 C
ATOM     23  C4  SGN B   2     -30.336  53.803  11.6830  0.00  0.00     0.000 C
ATOM     24  C5  SGN B   2     -29.009  53.341  11.1880  0.00  0.00     0.000 C
ATOM     25  O5  SGN B   2     -28.401  54.362  10.4840  0.00  0.00     0.000 O
ATOM     26   O  SGN B   2     -31.193  55.327  13.2960  0.00  0.00     0.000 O
ATOM     28  HD  SGN B   2     -32.007  55.500  13.5360  0.00  0.00     0.000 HD
BRANCH 21 30
ATOM     28   N  SGN B   2     -28.512  57.078  11.7670  0.00  0.00     0.000 N
ATOM     30  HD  SGN B   2     -28.254  57.128  12.5930  0.00  0.00     0.000 HD
ATOM     30 @NS  SGN B   2     -29.129  58.577  11.8790  0.00  0.00     0.000 S
ATOM     31   O  SGN B   2     -30.502  58.493  12.2480  0.00  0.00     0.000 OA
ATOM     32   O  SGN B   2     -28.359  59.176  12.8900  0.00  0.00     0.000 OA
ATOM     33   O  SGN B   2     -28.979  59.163  10.6010  0.00  0.00     0.000 OA
ENDBRANCH 21 30
BRANCH 24 34
ATOM     34   C  SGN B   2     -29.041  52.161  10.2900  0.00  0.00     0.000 C
ATOM     35   O  SGN B   2     -27.950  52.250   9.4440  0.00  0.00     0.000 O
ATOM     36  @S  SGN B   2     -27.509  51.123   8.5170  0.00  0.00     0.000 S
ATOM     37   O  SGN B   2     -28.206  51.390   7.2750  0.00  0.00     0.000 OA
ATOM     38   O  SGN B   2     -26.072  51.214   8.4060  0.00  0.00     0.000 OA
ATOM     39   O  SGN B   2     -27.934  49.897   9.1790  0.00  0.00     0.000 OA
ENDBRANCH 24 34
BRANCH 20 40
ATOM     40  O4  IDS B   3     -27.191  55.239  12.2650  0.00  0.00     0.000 O
BRANCH 40 44
ATOM     41  C1  IDS B   3     -23.773  55.833  12.7840  0.00  0.00     0.000 C
ATOM     42  C2  IDS B   3     -24.475  56.378  11.5410  0.00  0.00     0.000 C
ATOM     43  C3  IDS B   3     -25.375  55.376  10.7910  0.00  0.00     0.000 C
ATOM     44  C4  IDS B   3     -26.132  54.494  11.7630  0.00  0.00     0.000 C
ATOM     45  C5  IDS B   3     -25.241  54.004  12.9140  0.00  0.00     0.000 C
ATOM     46  O5  IDS B   3     -24.677  55.077  13.5760  0.00  0.00     0.000 O
ATOM     47   O  IDS B   3     -24.573  54.548   9.9740  0.00  0.00     0.000 O
ATOM     49  HD  IDS B   3     -25.296  54.958  10.2170  0.00  0.00     0.000 HD
BRANCH 42 49
ATOM     49   O  IDS B   3     -25.285  57.453  11.9230  0.00  0.00     0.000 O
ATOM     50   O  IDS B   3     -23.473  58.947  11.7440  0.00  0.00     0.000 OA
ATOM     51   O  IDS B   3     -25.618  59.647  11.0290  0.00  0.00     0.000 OA
ATOM     52   O  IDS B   3     -25.182  59.295  13.3220  0.00  0.00     0.000 OA
ATOM     53  @S  IDS B   3     -24.865  58.923  12.0050  0.00  0.00     0.000 S
ENDBRANCH 42 49
BRANCH 45 54
ATOM     54 @CA  IDS B   3     -25.922  53.079  13.9210  0.00  0.00     0.000 C
ATOM     55   O  IDS B   3     -26.191  51.940  13.6490  0.00  0.00     0.000 OA
ATOM     56   O  IDS B   3     -26.188  53.449  15.0160  0.00  0.00     0.000 OA
ENDBRANCH 45 54
BRANCH 41 57
ATOM     57  O4  SGN B   4     -22.670  55.080  12.4030  0.00  0.00     0.000 O
BRANCH 57 61
ATOM     58  C1  SGN B   4     -19.388  53.792  14.5400  0.00  0.00     0.000 C
ATOM     59  C2  SGN B   4     -20.469  54.485  15.3520  0.00  0.00     0.000 C
ATOM     60  C3  SGN B   4     -21.761  54.553  14.5420  0.00  0.00     0.000 C
ATOM     61  C4  SGN B   4     -21.529  55.235  13.1890  0.00  0.00     0.000 C
ATOM     62  C5  SGN B   4     -20.369  54.523  12.4990  0.00  0.00     0.000 C
ATOM     63  O5  SGN B   4     -19.218  54.497  13.3220  0.00  0.00     0.000 O
ATOM     64   O  SGN B   4     -22.713  55.304  15.2670  0.00  0.00     0.000 O
ATOM     66  HD  SGN B   4     -23.012  56.020  14.8820  0.00  0.00     0.000 HD
BRANCH 59 68
ATOM     66   N  SGN B   4     -19.932  54.936  16.6200  0.00  0.00     0.000 N
ATOM     68  HD  SGN B   4     -19.651  54.838  15.8060  0.00  0.00     0.000 HD
ATOM     68 @NS  SGN B   4     -19.565  53.846  17.7890  0.00  0.00     0.000 S
ATOM     69   O  SGN B   4     -20.558  52.813  17.7690  0.00  0.00     0.000 OA
ATOM     70   O  SGN B   4     -18.268  53.330  17.4600  0.00  0.00     0.000 OA
ATOM     71   O  SGN B   4     -19.583  54.607  19.0010  0.00  0.00     0.000 OA
ENDBRANCH 59 68
BRANCH 62 72
ATOM     72   C  SGN B   4     -19.958  55.190  11.1950  0.00  0.00     0.000 C
ATOM     73   O  SGN B   4     -20.923  54.811  10.2590  0.00  0.00     0.000 O
ATOM     74  @S  SGN B   4     -21.424  55.619   9.0500  0.00  0.00     0.000 S
ATOM     75   O  SGN B   4     -20.300  55.900   8.2350  0.00  0.00     0.000 OA
ATOM     76   O  SGN B   4     -22.358  54.746   8.4060  0.00  0.00     0.000 OA
ATOM     77   O  SGN B   4     -21.987  56.812   9.5870  0.00  0.00     0.000 OA
ENDBRANCH 62 72
BRANCH 58 78
ATOM     78  O4  IDS B   5     -19.729  52.436  14.3320  0.00  0.00     0.000 O
BRANCH 78 82
ATOM     79  C1  IDS B   5     -19.992  49.031  13.7580  0.00  0.00     0.000 C
ATOM     80  C2  IDS B   5     -19.976  49.537  15.1680  0.00  0.00     0.000 C
ATOM     81  C3  IDS B   5     -18.832  50.502  15.4630  0.00  0.00     0.000 C
ATOM     82  C4  IDS B   5     -18.643  51.536  14.3720  0.00  0.00     0.000 C
ATOM     83  C5  IDS B   5     -18.573  50.807  13.0680  0.00  0.00     0.000 C
ATOM     84  O5  IDS B   5     -19.781  50.102  12.8550  0.00  0.00     0.000 O
ATOM     85   O  IDS B   5     -17.646  49.750  15.5480  0.00  0.00     0.000 O
ATOM     87  HD  IDS B   5     -17.811  50.442  15.0550  0.00  0.00     0.000 HD
BRANCH 80 87
ATOM     87   O  IDS B   5     -21.145  50.221  15.3920  0.00  0.00     0.000 O
ATOM     88  @S  IDS B   5     -22.292  49.806  16.3180  0.00  0.00     0.000 S
ATOM     89   O  IDS B   5     -21.681  49.564  17.5750  0.00  0.00     0.000 OA
ATOM     90   O  IDS B   5     -23.198  50.901  16.3100  0.00  0.00     0.000 OA
ATOM     91   O  IDS B   5     -22.861  48.639  15.7400  0.00  0.00     0.000 OA
ENDBRANCH 80 87
BRANCH 83 92
ATOM     92 @CA  IDS B   5     -18.196  51.695  11.8880  0.00  0.00     0.000 C
ATOM     93   O  IDS B   5     -17.219  52.446  11.9450  0.00  0.00     0.000 OA
ATOM     94   O  IDS B   5     -18.870  51.683  10.8510  0.00  0.00     0.000 OA
ENDBRANCH 83 92
BRANCH 79 95
ATOM     95  O4  SGN B   6     -19.042  48.028  13.6140  0.00  0.00     0.000 O
BRANCH 95 99
ATOM     96  C1  SGN B   6     -17.959  45.460  10.5410  0.00  0.00     0.000 C
ATOM     97  C2  SGN B   6     -17.283  46.826  10.5370  0.00  0.00     0.000 C
ATOM     98  C3  SGN B   6     -17.371  47.361  11.9670  0.00  0.00     0.000 C
ATOM     99  C4  SGN B   6     -18.881  47.558  12.2880  0.00  0.00     0.000 C
ATOM    100  C5  SGN B   6     -19.548  46.158  12.1650  0.00  0.00     0.000 C
ATOM    101  O5  SGN B   6     -19.326  45.587  10.8790  0.00  0.00     0.000 O
BRANCH 97 104
ATOM    102   N  SGN B   6     -16.581  46.122   9.4600  0.00  0.00     0.000 N
ATOM    104  HD  SGN B   6     -15.725  46.194   9.5750  0.00  0.00     0.000 HD
ATOM    104 @NS  SGN B   6     -15.648  47.029   8.4300  0.00  0.00     0.000 S
ATOM    105   O  SGN B   6     -15.713  48.404   8.8740  0.00  0.00     0.000 OA
ATOM    106   O  SGN B   6     -14.308  46.494   8.5020  0.00  0.00     0.000 OA
ATOM    107   O  SGN B   6     -16.235  46.873   7.1170  0.00  0.00     0.000 OA
ENDBRANCH 97 104
BRANCH 100 108
ATOM    108   C  SGN B   6     -21.054  46.112  12.3910  0.00  0.00     0.000 C
ATOM    109   O  SGN B   6     -21.687  46.995  11.4980  0.00  0.00     0.000 O
ATOM    110  @S  SGN B   6     -23.234  47.255  11.4040  0.00  0.00     0.000 S
ATOM    111   O  SGN B   6     -23.715  47.286  12.7640  0.00  0.00     0.000 OA
ATOM    112   O  SGN B   6     -23.396  48.537  10.7360  0.00  0.00     0.000 OA
ATOM    113   O  SGN B   6     -23.771  46.147  10.6460  0.00  0.00     0.000 OA
ENDBRANCH 100 108
ENDBRANCH 95 99
ENDBRANCH 79 95
ENDBRANCH 78 82
ENDBRANCH 58 78
ENDBRANCH 57 61
ENDBRANCH 41 57
ENDBRANCH 40 44
ENDBRANCH 20 40
ENDBRANCH 19 23
ENDBRANCH 1 19
TORSDOF 22
ENDMDL
MODEL 7
REMARK VINA RESULT:      -4.9      4.034     11.228
ROOT
ATOM      1  C1  IDS B   1     -24.976  59.217  10.1430  0.00  0.00     0.000 C
ATOM      2  C2  IDS B   1     -26.104  58.855  11.0730  0.00  0.00     0.000 C
ATOM      3  C3  IDS B   1     -26.794  60.035  11.7980  0.00  0.00     0.000 C
ATOM      4  C4  IDS B   1     -26.734  61.390  11.0000  0.00  0.00     0.000 C
ATOM      5  C5  IDS B   1     -25.494  61.487  10.0790  0.00  0.00     0.000 C
ATOM      6  O5  IDS B   1     -25.357  60.309   9.3300  0.00  0.00     0.000 O
ATOM      7   O  IDS B   1     -26.175  60.165  13.0750  0.00  0.00     0.000 O
ATOM      9  HD  IDS B   1     -26.527  60.923  12.8450  0.00  0.00     0.000 HD
ATOM      9   O  IDS B   1     -27.885  61.461  10.1890  0.00  0.00     0.000 O
ATOM     11  HD  IDS B   1     -28.237  62.218   9.9590  0.00  0.00     0.000 HD
ENDROOT
BRANCH 2 11
ATOM     11   O  IDS B   1     -27.097  58.195  10.3660  0.00  0.00     0.000 O
ATOM     12  @S  IDS B   1     -27.904  56.999  10.9070  0.00  0.00     0.000 S
ATOM     13   O  IDS B   1     -27.016  56.393  11.8780  0.00  0.00     0.000 OA
ATOM     14   O  IDS B   1     -29.104  57.547  11.5140  0.00  0.00     0.000 OA
ATOM     15   O  IDS B   1     -28.186  56.161   9.7590  0.00  0.00     0.000 OA
ENDBRANCH 2 11
BRANCH 5 16
ATOM     16 @CA  IDS B   1     -25.426  62.697   9.1520  0.00  0.00     0.000 C
ATOM     17   O  IDS B   1     -25.975  63.758   9.4360  0.00  0.00     0.000 OA
ATOM     18   O  IDS B   1     -24.801  62.638   8.0960  0.00  0.00     0.000 OA
ENDBRANCH 5 16
BRANCH 1 19
ATOM     19  O4  SGN B   2     -23.849  59.545  10.9300  0.00  0.00     0.000 O
BRANCH 19 23
ATOM     20  C1  SGN B   2     -19.941  59.777   9.7340  0.00  0.00     0.000 C
ATOM     21  C2  SGN B   2     -20.657  61.050  10.1280  0.00  0.00     0.000 C
ATOM     22  C3  SGN B   2     -21.781  60.722  11.0440  0.00  0.00     0.000 C
ATOM     23  C4  SGN B   2     -22.714  59.873  10.2130  0.00  0.00     0.000 C
ATOM     24  C5  SGN B   2     -21.963  58.615   9.9430  0.00  0.00     0.000 C
ATOM     25  O5  SGN B   2     -20.878  58.893   9.1350  0.00  0.00     0.000 O
ATOM     26   O  SGN B   2     -22.411  61.890  11.4390  0.00  0.00     0.000 O
ATOM     28  HD  SGN B   2     -22.941  62.563  11.5610  0.00  0.00     0.000 HD
BRANCH 21 30
ATOM     28   N  SGN B   2     -19.825  61.691   9.1530  0.00  0.00     0.000 N
ATOM     30  HD  SGN B   2     -19.163  61.133   9.1590  0.00  0.00     0.000 HD
ATOM     30 @NS  SGN B   2     -18.831  62.861   9.6860  0.00  0.00     0.000 S
ATOM     31   O  SGN B   2     -18.886  62.910  11.1090  0.00  0.00     0.000 OA
ATOM     32   O  SGN B   2     -17.566  62.451   9.2330  0.00  0.00     0.000 OA
ATOM     33   O  SGN B   2     -19.298  64.068   9.1160  0.00  0.00     0.000 OA
ENDBRANCH 21 30
BRANCH 24 34
ATOM     34   C  SGN B   2     -22.738  57.544   9.2680  0.00  0.00     0.000 C
ATOM     35   O  SGN B   2     -22.918  56.520  10.1800  0.00  0.00     0.000 O
ATOM     36  @S  SGN B   2     -23.845  55.334   9.9410  0.00  0.00     0.000 S
ATOM     37   O  SGN B   2     -22.992  54.333   9.3310  0.00  0.00     0.000 OA
ATOM     38   O  SGN B   2     -24.363  54.944  11.2310  0.00  0.00     0.000 OA
ATOM     39   O  SGN B   2     -24.888  55.837   9.0580  0.00  0.00     0.000 OA
ENDBRANCH 24 34
BRANCH 20 40
ATOM     40  O4  IDS B   3     -19.334  59.194  10.8460  0.00  0.00     0.000 O
BRANCH 40 44
ATOM     41  C1  IDS B   3     -16.985  57.782  13.0350  0.00  0.00     0.000 C
ATOM     42  C2  IDS B   3     -16.797  59.204  12.5090  0.00  0.00     0.000 C
ATOM     43  C3  IDS B   3     -17.003  59.385  10.9920  0.00  0.00     0.000 C
ATOM     44  C4  IDS B   3     -18.159  58.541  10.4960  0.00  0.00     0.000 C
ATOM     45  C5  IDS B   3     -18.143  57.127  11.0990  0.00  0.00     0.000 C
ATOM     46  O5  IDS B   3     -18.151  57.194  12.4790  0.00  0.00     0.000 O
ATOM     47   O  IDS B   3     -15.834  58.980  10.3100  0.00  0.00     0.000 O
ATOM     49  HD  IDS B   3     -16.570  59.421  10.4240  0.00  0.00     0.000 HD
BRANCH 42 49
ATOM     49   O  IDS B   3     -17.716  60.041  13.1510  0.00  0.00     0.000 O
ATOM     50   O  IDS B   3     -16.202  60.433  14.9120  0.00  0.00     0.000 OA
ATOM     51   O  IDS B   3     -17.540  62.220  14.1250  0.00  0.00     0.000 OA
ATOM     52   O  IDS B   3     -18.524  60.417  15.2880  0.00  0.00     0.000 OA
ATOM     53  @S  IDS B   3     -17.479  60.827  14.4430  0.00  0.00     0.000 S
ENDBRANCH 42 49
BRANCH 45 54
ATOM     54 @CA  IDS B   3     -19.259  56.200  10.6220  0.00  0.00     0.000 C
ATOM     55   O  IDS B   3     -20.175  55.897  11.3370  0.00  0.00     0.000 OA
ATOM     56   O  IDS B   3     -19.269  55.765   9.5190  0.00  0.00     0.000 OA
ENDBRANCH 45 54
BRANCH 41 57
ATOM     57  O4  SGN B   4     -15.849  57.030  12.7600  0.00  0.00     0.000 O
BRANCH 57 61
ATOM     58  C1  SGN B   4     -16.651  54.152  15.6010  0.00  0.00     0.000 C
ATOM     59  C2  SGN B   4     -15.910  55.381  16.1020  0.00  0.00     0.000 C
ATOM     60  C3  SGN B   4     -16.024  56.507  15.0790  0.00  0.00     0.000 C
ATOM     61  C4  SGN B   4     -15.525  56.055  13.7010  0.00  0.00     0.000 C
ATOM     62  C5  SGN B   4     -16.264  54.770  13.3350  0.00  0.00     0.000 C
ATOM     63  O5  SGN B   4     -16.113  53.786  14.3410  0.00  0.00     0.000 O
ATOM     64   O  SGN B   4     -15.232  57.594  15.5090  0.00  0.00     0.000 O
ATOM     66  HD  SGN B   4     -14.594  57.839  14.9770  0.00  0.00     0.000 HD
BRANCH 59 68
ATOM     66   N  SGN B   4     -15.263  55.065  17.3590  0.00  0.00     0.000 N
ATOM     68  HD  SGN B   4     -15.478  54.650  16.6300  0.00  0.00     0.000 HD
ATOM     68 @NS  SGN B   4     -16.156  54.913  18.7260  0.00  0.00     0.000 S
ATOM     69   O  SGN B   4     -17.197  55.897  18.6950  0.00  0.00     0.000 OA
ATOM     70   O  SGN B   4     -16.694  53.583  18.7060  0.00  0.00     0.000 OA
ATOM     71   O  SGN B   4     -15.220  55.132  19.7870  0.00  0.00     0.000 OA
ENDBRANCH 59 68
BRANCH 62 72
ATOM     72   C  SGN B   4     -15.763  54.149  12.0400  0.00  0.00     0.000 C
ATOM     73   O  SGN B   4     -14.369  54.202  12.1130  0.00  0.00     0.000 O
ATOM     74  @S  SGN B   4     -13.361  53.213  11.5020  0.00  0.00     0.000 S
ATOM     75   O  SGN B   4     -13.593  53.183  10.1050  0.00  0.00     0.000 OA
ATOM     76   O  SGN B   4     -12.082  53.769  11.8280  0.00  0.00     0.000 OA
ATOM     77   O  SGN B   4     -13.641  51.953  12.1020  0.00  0.00     0.000 OA
ENDBRANCH 62 72
BRANCH 58 78
ATOM     78  O4  IDS B   5     -18.038  54.412  15.5370  0.00  0.00     0.000 O
BRANCH 78 82
ATOM     79  C1  IDS B   5     -21.501  54.508  15.5310  0.00  0.00     0.000 C
ATOM     80  C2  IDS B   5     -20.766  54.653  16.8280  0.00  0.00     0.000 C
ATOM     81  C3  IDS B   5     -19.710  53.576  17.0630  0.00  0.00     0.000 C
ATOM     82  C4  IDS B   5     -18.865  53.308  15.8350  0.00  0.00     0.000 C
ATOM     83  C5  IDS B   5     -19.798  53.082  14.6870  0.00  0.00     0.000 C
ATOM     84  O5  IDS B   5     -20.586  54.239  14.4830  0.00  0.00     0.000 O
ATOM     85   O  IDS B   5     -20.380  52.382  17.3890  0.00  0.00     0.000 O
ATOM     87  HD  IDS B   5     -19.788  52.517  16.7710  0.00  0.00     0.000 HD
BRANCH 80 87
ATOM     87   O  IDS B   5     -20.112  55.860  16.8190  0.00  0.00     0.000 O
ATOM     88  @S  IDS B   5     -20.400  57.071  17.7100  0.00  0.00     0.000 S
ATOM     89   O  IDS B   5     -20.367  56.568  19.0360  0.00  0.00     0.000 OA
ATOM     90   O  IDS B   5     -19.374  58.008  17.4160  0.00  0.00     0.000 OA
ATOM     91   O  IDS B   5     -21.683  57.545  17.3260  0.00  0.00     0.000 OA
ENDBRANCH 80 87
BRANCH 83 92
ATOM     92 @CA  IDS B   5     -19.102  52.614  13.4150  0.00  0.00     0.000 C
ATOM     93   O  IDS B   5     -19.352  53.136  12.3260  0.00  0.00     0.000 OA
ATOM     94   O  IDS B   5     -18.275  51.695  13.4510  0.00  0.00     0.000 OA
ENDBRANCH 83 92
BRANCH 79 95
ATOM     95  O4  SGN B   6     -22.466  53.517  15.6520  0.00  0.00     0.000 O
BRANCH 95 99
ATOM     96  C1  SGN B   6     -25.554  52.038  13.3100  0.00  0.00     0.000 C
ATOM     97  C2  SGN B   6     -24.154  51.920  12.7190  0.00  0.00     0.000 C
ATOM     98  C3  SGN B   6     -23.178  51.984  13.8940  0.00  0.00     0.000 C
ATOM     99  C4  SGN B   6     -23.326  53.394  14.5340  0.00  0.00     0.000 C
ATOM    100  C5  SGN B   6     -24.800  53.511  15.0160  0.00  0.00     0.000 C
ATOM    101  O5  SGN B   6     -25.716  53.289  13.9480  0.00  0.00     0.000 O
BRANCH 97 104
ATOM    102   N  SGN B   6     -24.021  52.119  11.2730  0.00  0.00     0.000 N
ATOM    104  HD  SGN B   6     -24.787  51.990  10.8900  0.00  0.00     0.000 HD
ATOM    104 @NS  SGN B   6     -24.281  50.808  10.2900  0.00  0.00     0.000 S
ATOM    105   O  SGN B   6     -24.639  49.690  11.1350  0.00  0.00     0.000 OA
ATOM    106   O  SGN B   6     -25.346  51.171   9.3840  0.00  0.00     0.000 OA
ATOM    107   O  SGN B   6     -23.031  50.569   9.6040  0.00  0.00     0.000 OA
ENDBRANCH 97 104
BRANCH 100 108
ATOM    108   C  SGN B   6     -25.197  54.843  15.6400  0.00  0.00     0.000 C
ATOM    109   O  SGN B   6     -24.915  55.884  14.7380  0.00  0.00     0.000 O
ATOM    110  @S  SGN B   6     -25.167  57.414  14.9910  0.00  0.00     0.000 S
ATOM    111   O  SGN B   6     -24.792  57.656  16.3640  0.00  0.00     0.000 OA
ATOM    112   O  SGN B   6     -24.313  58.131  14.0560  0.00  0.00     0.000 OA
ATOM    113   O  SGN B   6     -26.576  57.624  14.7510  0.00  0.00     0.000 OA
ENDBRANCH 100 108
ENDBRANCH 95 99
ENDBRANCH 79 95
ENDBRANCH 78 82
ENDBRANCH 58 78
ENDBRANCH 57 61
ENDBRANCH 41 57
ENDBRANCH 40 44
ENDBRANCH 20 40
ENDBRANCH 19 23
ENDBRANCH 1 19
TORSDOF 22
ENDMDL
MODEL 8
REMARK VINA RESULT:      -4.8      4.140      6.310
ROOT
ATOM      1  C1  IDS B   1     -13.721  53.671  18.5890  0.00  0.00     0.000 C
ATOM      2  C2  IDS B   1     -12.518  52.765  18.5390  0.00  0.00     0.000 C
ATOM      3  C3  IDS B   1     -11.728  52.755  17.2080  0.00  0.00     0.000 C
ATOM      4  C4  IDS B   1     -11.827  54.105  16.4040  0.00  0.00     0.000 C
ATOM      5  C5  IDS B   1     -13.147  54.866  16.6740  0.00  0.00     0.000 C
ATOM      6  O5  IDS B   1     -13.389  54.936  18.0540  0.00  0.00     0.000 O
ATOM      7   O  IDS B   1     -12.216  51.663  16.4350  0.00  0.00     0.000 O
ATOM      9  HD  IDS B   1     -11.868  52.256  15.9100  0.00  0.00     0.000 HD
ATOM      9   O  IDS B   1     -10.759  54.928  16.8150  0.00  0.00     0.000 O
ATOM     11  HD  IDS B   1     -10.410  55.521  16.2900  0.00  0.00     0.000 HD
ENDROOT
BRANCH 2 11
ATOM     11   O  IDS B   1     -11.618  53.131  19.5260  0.00  0.00     0.000 O
ATOM     12  @S  IDS B   1     -11.346  52.314  20.8050  0.00  0.00     0.000 S
ATOM     13   O  IDS B   1     -12.579  51.582  21.0170  0.00  0.00     0.000 OA
ATOM     14   O  IDS B   1     -10.224  51.441  20.5100  0.00  0.00     0.000 OA
ATOM     15   O  IDS B   1     -11.048  53.285  21.8390  0.00  0.00     0.000 OA
ENDBRANCH 2 11
BRANCH 5 16
ATOM     16 @CA  IDS B   1     -13.271  56.256  16.0580  0.00  0.00     0.000 C
ATOM     17   O  IDS B   1     -13.939  56.456  15.0460  0.00  0.00     0.000 OA
ATOM     18   O  IDS B   1     -12.711  57.220  16.5750  0.00  0.00     0.000 OA
ENDBRANCH 5 16
BRANCH 1 19
ATOM     19  O4  SGN B   2     -14.756  53.064  17.8430  0.00  0.00     0.000 O
BRANCH 19 23
ATOM     20  C1  SGN B   2     -18.833  53.404  17.9810  0.00  0.00     0.000 C
ATOM     21  C2  SGN B   2     -17.996  54.662  18.0590  0.00  0.00     0.000 C
ATOM     22  C3  SGN B   2     -16.673  54.416  17.4260  0.00  0.00     0.000 C
ATOM     23  C4  SGN B   2     -16.034  53.348  18.2840  0.00  0.00     0.000 C
ATOM     24  C5  SGN B   2     -16.870  52.132  18.0820  0.00  0.00     0.000 C
ATOM     25  O5  SGN B   2     -18.127  52.346  18.6130  0.00  0.00     0.000 O
ATOM     26   O  SGN B   2     -15.922  55.578  17.4600  0.00  0.00     0.000 O
ATOM     28  HD  SGN B   2     -15.357  56.214  17.6220  0.00  0.00     0.000 HD
BRANCH 21 30
ATOM     28   N  SGN B   2     -18.808  55.652  17.4150  0.00  0.00     0.000 N
ATOM     30  HD  SGN B   2     -18.246  56.311  17.4260  0.00  0.00     0.000 HD
ATOM     30 @NS  SGN B   2     -19.814  56.509  18.3610  0.00  0.00     0.000 S
ATOM     31   O  SGN B   2     -19.563  56.186  19.7250  0.00  0.00     0.000 OA
ATOM     32   O  SGN B   2     -19.479  57.843  18.0760  0.00  0.00     0.000 OA
ATOM     33   O  SGN B   2     -21.125  56.137  17.9820  0.00  0.00     0.000 OA
ENDBRANCH 21 30
BRANCH 24 34
ATOM     34   C  SGN B   2     -16.347  50.891  18.7060  0.00  0.00     0.000 C
ATOM     35   O  SGN B   2     -15.413  50.350  17.8410  0.00  0.00     0.000 O
ATOM     36  @S  SGN B   2     -14.496  49.191  18.2110  0.00  0.00     0.000 S
ATOM     37   O  SGN B   2     -15.227  48.010  17.7960  0.00  0.00     0.000 OA
ATOM     38   O  SGN B   2     -13.261  49.391  17.4890  0.00  0.00     0.000 OA
ATOM     39   O  SGN B   2     -14.313  49.294  19.6530  0.00  0.00     0.000 OA
ENDBRANCH 24 34
BRANCH 20 40
ATOM     40  O4  IDS B   3     -19.127  53.095  16.6530  0.00  0.00     0.000 O
BRANCH 40 44
ATOM     41  C1  IDS B   3     -20.750  52.164  13.6860  0.00  0.00     0.000 C
ATOM     42  C2  IDS B   3     -21.076  53.493  14.3640  0.00  0.00     0.000 C
ATOM     43  C3  IDS B   3     -21.316  53.424  15.8850  0.00  0.00     0.000 C
ATOM     44  C4  IDS B   3     -20.354  52.455  16.5420  0.00  0.00     0.000 C
ATOM     45  C5  IDS B   3     -20.200  51.156  15.7350  0.00  0.00     0.000 C
ATOM     46  O5  IDS B   3     -19.795  51.438  14.4450  0.00  0.00     0.000 O
ATOM     47   O  IDS B   3     -22.633  52.976  16.1310  0.00  0.00     0.000 O
ATOM     49  HD  IDS B   3     -21.894  53.392  16.3050  0.00  0.00     0.000 HD
BRANCH 42 49
ATOM     49   O  IDS B   3     -20.009  54.373  14.1560  0.00  0.00     0.000 O
ATOM     50   O  IDS B   3     -21.477  56.053  13.3990  0.00  0.00     0.000 OA
ATOM     51   O  IDS B   3     -19.633  56.659  14.7550  0.00  0.00     0.000 OA
ATOM     52   O  IDS B   3     -19.288  55.881  12.5530  0.00  0.00     0.000 OA
ATOM     53  @S  IDS B   3     -20.109  55.829  13.6930  0.00  0.00     0.000 S
ENDBRANCH 42 49
BRANCH 45 54
ATOM     54 @CA  IDS B   3     -19.272  50.111  16.3490  0.00  0.00     0.000 C
ATOM     55   O  IDS B   3     -19.536  49.565  17.3860  0.00  0.00     0.000 OA
ATOM     56   O  IDS B   3     -18.267  49.785  15.8100  0.00  0.00     0.000 OA
ENDBRANCH 45 54
BRANCH 41 57
ATOM     57  O4  SGN B   4     -21.919  51.437  13.5000  0.00  0.00     0.000 O
BRANCH 57 61
ATOM     58  C1  SGN B   4     -23.683  48.945  10.7290  0.00  0.00     0.000 C
ATOM     59  C2  SGN B   4     -22.584  48.318  11.5700  0.00  0.00     0.000 C
ATOM     60  C3  SGN B   4     -22.298  49.194  12.7860  0.00  0.00     0.000 C
ATOM     61  C4  SGN B   4     -21.955  50.628  12.3650  0.00  0.00     0.000 C
ATOM     62  C5  SGN B   4     -23.073  51.128  11.4540  0.00  0.00     0.000 C
ATOM     63  O5  SGN B   4     -23.276  50.252  10.3610  0.00  0.00     0.000 O
ATOM     64   O  SGN B   4     -21.196  48.656  13.4860  0.00  0.00     0.000 O
ATOM     66  HD  SGN B   4     -20.504  49.169  13.5680  0.00  0.00     0.000 HD
BRANCH 59 68
ATOM     66   N  SGN B   4     -22.104  47.127  10.8990  0.00  0.00     0.000 N
ATOM     68  HD  SGN B   4     -22.437  47.895  10.6760  0.00  0.00     0.000 HD
ATOM     68 @NS  SGN B   4     -23.016  45.764  10.8940  0.00  0.00     0.000 S
ATOM     69   O  SGN B   4     -23.656  45.647  12.1710  0.00  0.00     0.000 OA
ATOM     70   O  SGN B   4     -23.977  45.931   9.8420  0.00  0.00     0.000 OA
ATOM     71   O  SGN B   4     -22.079  44.711  10.6460  0.00  0.00     0.000 OA
ENDBRANCH 59 68
BRANCH 62 72
ATOM     72   C  SGN B   4     -22.785  52.501  10.8650  0.00  0.00     0.000 C
ATOM     73   O  SGN B   4     -21.395  52.633  10.8830  0.00  0.00     0.000 O
ATOM     74  @S  SGN B   4     -20.516  53.415   9.8930  0.00  0.00     0.000 S
ATOM     75   O  SGN B   4     -20.951  54.763   9.9140  0.00  0.00     0.000 OA
ATOM     76   O  SGN B   4     -19.188  53.266  10.4070  0.00  0.00     0.000 OA
ATOM     77   O  SGN B   4     -20.739  52.817   8.6190  0.00  0.00     0.000 OA
ENDBRANCH 62 72
BRANCH 58 78
ATOM     78  O4  IDS B   5     -24.903  48.943  11.4420  0.00  0.00     0.000 O
BRANCH 78 82
ATOM     79  C1  IDS B   5     -28.143  48.913  12.6670  0.00  0.00     0.000 C
ATOM     80  C2  IDS B   5     -27.384  47.624  12.5710  0.00  0.00     0.000 C
ATOM     81  C3  IDS B   5     -26.736  47.391  11.2080  0.00  0.00     0.000 C
ATOM     82  C4  IDS B   5     -26.042  48.626  10.6710  0.00  0.00     0.000 C
ATOM     83  C5  IDS B   5     -27.012  49.761  10.7570  0.00  0.00     0.000 C
ATOM     84  O5  IDS B   5     -27.381  49.967  12.1070  0.00  0.00     0.000 O
ATOM     85   O  IDS B   5     -27.755  47.046  10.3020  0.00  0.00     0.000 O
ATOM     87  HD  IDS B   5     -27.161  47.671  10.2320  0.00  0.00     0.000 HD
BRANCH 80 87
ATOM     87   O  IDS B   5     -26.370  47.652  13.4960  0.00  0.00     0.000 O
ATOM     88  @S  IDS B   5     -26.231  46.767  14.7370  0.00  0.00     0.000 S
ATOM     89   O  IDS B   5     -26.343  45.438  14.2550  0.00  0.00     0.000 OA
ATOM     90   O  IDS B   5     -24.959  47.083  15.2860  0.00  0.00     0.000 OA
ATOM     91   O  IDS B   5     -27.294  47.136  15.6050  0.00  0.00     0.000 OA
ENDBRANCH 80 87
BRANCH 83 92
ATOM     92 @CA  IDS B   5     -26.525  51.036  10.0790  0.00  0.00     0.000 C
ATOM     93   O  IDS B   5     -26.193  51.037   8.8910  0.00  0.00     0.000 OA
ATOM     94   O  IDS B   5     -26.450  52.096  10.7130  0.00  0.00     0.000 OA
ENDBRANCH 83 92
BRANCH 79 95
ATOM     95  O4  SGN B   6     -29.378  48.771  12.0480  0.00  0.00     0.000 O
BRANCH 95 99
ATOM     96  C1  SGN B   6     -32.915  50.932  11.8910  0.00  0.00     0.000 C
ATOM     97  C2  SGN B   6     -31.690  51.616  11.2950  0.00  0.00     0.000 C
ATOM     98  C3  SGN B   6     -30.696  50.506  10.9510  0.00  0.00     0.000 C
ATOM     99  C4  SGN B   6     -30.282  49.833  12.2910  0.00  0.00     0.000 C
ATOM    100  C5  SGN B   6     -31.583  49.253  12.9180  0.00  0.00     0.000 C
ATOM    101  O5  SGN B   6     -32.573  50.263  13.0890  0.00  0.00     0.000 O
BRANCH 97 104
ATOM    102   N  SGN B   6     -32.735  52.638  11.1820  0.00  0.00     0.000 N
ATOM    104  HD  SGN B   6     -32.934  52.760  10.3480  0.00  0.00     0.000 HD
ATOM    104 @NS  SGN B   6     -32.347  54.051  10.4040  0.00  0.00     0.000 S
ATOM    105   O  SGN B   6     -30.978  53.939   9.9480  0.00  0.00     0.000 OA
ATOM    106   O  SGN B   6     -33.278  54.192   9.3090  0.00  0.00     0.000 OA
ATOM    107   O  SGN B   6     -32.489  55.101  11.3880  0.00  0.00     0.000 OA
ENDBRANCH 97 104
BRANCH 100 108
ATOM    108   C  SGN B   6     -31.430  48.581  14.2770  0.00  0.00     0.000 C
ATOM    109   O  SGN B   6     -31.782  47.224  14.1690  0.00  0.00     0.000 O
ATOM    110  @S  SGN B   6     -31.770  46.175  15.3390  0.00  0.00     0.000 S
ATOM    111   O  SGN B   6     -32.285  46.867  16.4970  0.00  0.00     0.000 OA
ATOM    112   O  SGN B   6     -32.637  45.085  14.9220  0.00  0.00     0.000 OA
ATOM    113   O  SGN B   6     -30.389  45.777  15.4940  0.00  0.00     0.000 OA
ENDBRANCH 100 108
ENDBRANCH 95 99
ENDBRANCH 79 95
ENDBRANCH 78 82
ENDBRANCH 58 78
ENDBRANCH 57 61
ENDBRANCH 41 57
ENDBRANCH 40 44
ENDBRANCH 20 40
ENDBRANCH 19 23
ENDBRANCH 1 19
TORSDOF 22
ENDMDL
MODEL 9
REMARK VINA RESULT:      -4.7      4.677     12.474
ROOT
ATOM      1  C1  IDS B   1     -26.222  54.507  11.5100  0.00  0.00     0.000 C
ATOM      2  C2  IDS B   1     -25.328  55.685  11.7940  0.00  0.00     0.000 C
ATOM      3  C3  IDS B   1     -24.408  56.137  10.6340  0.00  0.00     0.000 C
ATOM      4  C4  IDS B   1     -24.988  55.817   9.2060  0.00  0.00     0.000 C
ATOM      5  C5  IDS B   1     -25.918  54.580   9.2020  0.00  0.00     0.000 C
ATOM      6  O5  IDS B   1     -26.844  54.671  10.2510  0.00  0.00     0.000 O
ATOM      7   O  IDS B   1     -23.145  55.507  10.8260  0.00  0.00     0.000 O
ATOM      9  HD  IDS B   1     -23.245  55.706   9.9900  0.00  0.00     0.000 HD
ATOM      9   O  IDS B   1     -25.745  56.932   8.7910  0.00  0.00     0.000 O
ATOM     11  HD  IDS B   1     -25.844  57.131   7.9540  0.00  0.00     0.000 HD
ENDROOT
BRANCH 2 11
ATOM     11   O  IDS B   1     -26.100  56.785  12.1330  0.00  0.00     0.000 O
ATOM     12  @S  IDS B   1     -25.537  58.192  12.4110  0.00  0.00     0.000 S
ATOM     13   O  IDS B   1     -24.183  57.942  12.8610  0.00  0.00     0.000 OA
ATOM     14   O  IDS B   1     -25.581  58.914  11.1520  0.00  0.00     0.000 OA
ATOM     15   O  IDS B   1     -26.400  58.771  13.4220  0.00  0.00     0.000 OA
ENDBRANCH 2 11
BRANCH 5 16
ATOM     16 @CA  IDS B   1     -26.647  54.279   7.8960  0.00  0.00     0.000 C
ATOM     17   O  IDS B   1     -26.744  55.118   7.0040  0.00  0.00     0.000 OA
ATOM     18   O  IDS B   1     -27.147  53.173   7.7020  0.00  0.00     0.000 OA
ENDBRANCH 5 16
BRANCH 1 19
ATOM     19  O4  SGN B   2     -25.426  53.340  11.5300  0.00  0.00     0.000 O
BRANCH 19 23
ATOM     20  C1  SGN B   2     -26.128  49.593  13.0220  0.00  0.00     0.000 C
ATOM     21  C2  SGN B   2     -26.552  49.901  11.6020  0.00  0.00     0.000 C
ATOM     22  C3  SGN B   2     -25.731  51.021  11.0730  0.00  0.00     0.000 C
ATOM     23  C4  SGN B   2     -26.079  52.198  11.9550  0.00  0.00     0.000 C
ATOM     24  C5  SGN B   2     -25.554  51.845  13.3040  0.00  0.00     0.000 C
ATOM     25  O5  SGN B   2     -26.263  50.770  13.8050  0.00  0.00     0.000 O
ATOM     26   O  SGN B   2     -26.089  51.277   9.7610  0.00  0.00     0.000 O
ATOM     28  HD  SGN B   2     -26.402  51.590   9.0170  0.00  0.00     0.000 HD
BRANCH 21 30
ATOM     28   N  SGN B   2     -27.240  48.718  12.0310  0.00  0.00     0.000 N
ATOM     30  HD  SGN B   2     -26.551  48.223  12.2070  0.00  0.00     0.000 HD
ATOM     30 @NS  SGN B   2     -27.688  47.667  10.8760  0.00  0.00     0.000 S
ATOM     31   O  SGN B   2     -27.148  48.086   9.6260  0.00  0.00     0.000 OA
ATOM     32   O  SGN B   2     -27.125  46.451  11.3000  0.00  0.00     0.000 OA
ATOM     33   O  SGN B   2     -29.102  47.684  10.8530  0.00  0.00     0.000 OA
ENDBRANCH 21 30
BRANCH 24 34
ATOM     34   C  SGN B   2     -25.637  52.924  14.3200  0.00  0.00     0.000 C
ATOM     35   O  SGN B   2     -26.003  52.340  15.5190  0.00  0.00     0.000 O
ATOM     36  @S  SGN B   2     -25.987  53.078  16.8530  0.00  0.00     0.000 S
ATOM     37   O  SGN B   2     -27.323  53.626  16.9730  0.00  0.00     0.000 OA
ATOM     38   O  SGN B   2     -25.671  52.098  17.8660  0.00  0.00     0.000 OA
ATOM     39   O  SGN B   2     -24.946  54.087  16.7180  0.00  0.00     0.000 OA
ENDBRANCH 24 34
BRANCH 20 40
ATOM     40  O4  IDS B   3     -24.818  49.115  13.0470  0.00  0.00     0.000 O
BRANCH 40 44
ATOM     41  C1  IDS B   3     -22.037  47.063  13.6430  0.00  0.00     0.000 C
ATOM     42  C2  IDS B   3     -23.314  46.481  13.0410  0.00  0.00     0.000 C
ATOM     43  C3  IDS B   3     -24.625  46.885  13.7430  0.00  0.00     0.000 C
ATOM     44  C4  IDS B   3     -24.585  48.338  14.1740  0.00  0.00     0.000 C
ATOM     45  C5  IDS B   3     -23.236  48.716  14.8050  0.00  0.00     0.000 C
ATOM     46  O5  IDS B   3     -22.203  48.444  13.9280  0.00  0.00     0.000 O
ATOM     47   O  IDS B   3     -24.806  46.086  14.8930  0.00  0.00     0.000 O
ATOM     49  HD  IDS B   3     -25.053  46.582  14.2280  0.00  0.00     0.000 HD
BRANCH 42 49
ATOM     49   O  IDS B   3     -23.411  46.904  11.7110  0.00  0.00     0.000 O
ATOM     50   O  IDS B   3     -21.888  45.246  11.0200  0.00  0.00     0.000 OA
ATOM     51   O  IDS B   3     -23.751  45.743   9.6470  0.00  0.00     0.000 OA
ATOM     52   O  IDS B   3     -22.013  47.318   9.9130  0.00  0.00     0.000 OA
ATOM     53  @S  IDS B   3     -22.729  46.261  10.5010  0.00  0.00     0.000 S
ENDBRANCH 42 49
BRANCH 45 54
ATOM     54 @CA  IDS B   3     -23.125  50.157  15.2980  0.00  0.00     0.000 C
ATOM     55   O  IDS B   3     -23.419  50.462  16.4220  0.00  0.00     0.000 OA
ATOM     56   O  IDS B   3     -22.723  51.021  14.5920  0.00  0.00     0.000 OA
ENDBRANCH 45 54
BRANCH 41 57
ATOM     57  O4  SGN B   4     -21.687  46.343  14.7790  0.00  0.00     0.000 O
BRANCH 57 61
ATOM     58  C1  SGN B   4     -17.715  47.382  14.4150  0.00  0.00     0.000 C
ATOM     59  C2  SGN B   4     -18.085  46.008  13.8830  0.00  0.00     0.000 C
ATOM     60  C3  SGN B   4     -19.598  45.908  13.7180  0.00  0.00     0.000 C
ATOM     61  C4  SGN B   4     -20.320  46.232  15.0300  0.00  0.00     0.000 C
ATOM     62  C5  SGN B   4     -19.811  47.584  15.5220  0.00  0.00     0.000 C
ATOM     63  O5  SGN B   4     -18.401  47.592  15.6370  0.00  0.00     0.000 O
ATOM     64   O  SGN B   4     -19.928  44.587  13.3380  0.00  0.00     0.000 O
ATOM     66  HD  SGN B   4     -20.451  44.152  13.8740  0.00  0.00     0.000 HD
BRANCH 59 68
ATOM     66   N  SGN B   4     -16.882  45.207  13.7840  0.00  0.00     0.000 N
ATOM     68  HD  SGN B   4     -17.182  45.848  14.2830  0.00  0.00     0.000 HD
ATOM     68 @NS  SGN B   4     -15.803  45.491  12.5810  0.00  0.00     0.000 S
ATOM     69   O  SGN B   4     -16.533  45.823  11.3930  0.00  0.00     0.000 OA
ATOM     70   O  SGN B   4     -14.996  46.591  13.0210  0.00  0.00     0.000 OA
ATOM     71   O  SGN B   4     -15.076  44.264  12.4600  0.00  0.00     0.000 OA
ENDBRANCH 59 68
BRANCH 62 72
ATOM     72   C  SGN B   4     -20.363  47.961  16.8890  0.00  0.00     0.000 C
ATOM     73   O  SGN B   4     -19.579  47.268  17.8140  0.00  0.00     0.000 O
ATOM     74  @S  SGN B   4     -19.206  47.706  19.2410  0.00  0.00     0.000 S
ATOM     75   O  SGN B   4     -20.415  47.903  19.9510  0.00  0.00     0.000 OA
ATOM     76   O  SGN B   4     -18.445  46.609  19.7580  0.00  0.00     0.000 OA
ATOM     77   O  SGN B   4     -18.484  48.925  19.0970  0.00  0.00     0.000 OA
ENDBRANCH 62 72
BRANCH 58 78
ATOM     78  O4  IDS B   5     -18.016  48.374  13.4540  0.00  0.00     0.000 O
BRANCH 78 82
ATOM     79  C1  IDS B   5     -18.219  50.996  11.2000  0.00  0.00     0.000 C
ATOM     80  C2  IDS B   5     -17.311  49.843  10.9020  0.00  0.00     0.000 C
ATOM     81  C3  IDS B   5     -16.384  49.473  12.0570  0.00  0.00     0.000 C
ATOM     82  C4  IDS B   5     -17.098  49.443  13.3930  0.00  0.00     0.000 C
ATOM     83  C5  IDS B   5     -17.847  50.730  13.5320  0.00  0.00     0.000 C
ATOM     84  O5  IDS B   5     -18.793  50.842  12.4860  0.00  0.00     0.000 O
ATOM     85   O  IDS B   5     -15.378  50.455  12.1320  0.00  0.00     0.000 O
ATOM     87  HD  IDS B   5     -15.909  50.177  12.7580  0.00  0.00     0.000 HD
BRANCH 80 87
ATOM     87   O  IDS B   5     -18.087  48.740  10.6430  0.00  0.00     0.000 O
ATOM     88  @S  IDS B   5     -18.310  48.069   9.2860  0.00  0.00     0.000 S
ATOM     89   O  IDS B   5     -17.008  47.812   8.7840  0.00  0.00     0.000 OA
ATOM     90   O  IDS B   5     -19.070  46.901   9.5630  0.00  0.00     0.000 OA
ATOM     91   O  IDS B   5     -19.036  49.003   8.4990  0.00  0.00     0.000 OA
ENDBRANCH 80 87
BRANCH 83 92
ATOM     92 @CA  IDS B   5     -18.468  50.932  14.9090  0.00  0.00     0.000 C
ATOM     93   O  IDS B   5     -17.761  51.065  15.9110  0.00  0.00     0.000 OA
ATOM     94   O  IDS B   5     -19.697  50.963  15.0470  0.00  0.00     0.000 OA
ENDBRANCH 83 92
BRANCH 79 95
ATOM     95  O4  SGN B   6     -17.513  52.186  11.0800  0.00  0.00     0.000 O
BRANCH 95 99
ATOM     96  C1  SGN B   6     -18.587  56.178  11.4290  0.00  0.00     0.000 C
ATOM     97  C2  SGN B   6     -17.994  55.536  12.6780  0.00  0.00     0.000 C
ATOM     98  C3  SGN B   6     -17.188  54.326  12.2050  0.00  0.00     0.000 C
ATOM     99  C4  SGN B   6     -18.195  53.326  11.5690  0.00  0.00     0.000 C
ATOM    100  C5  SGN B   6     -18.859  54.066  10.3720  0.00  0.00     0.000 C
ATOM    101  O5  SGN B   6     -19.474  55.282  10.7880  0.00  0.00     0.000 O
BRANCH 97 104
ATOM    102   N  SGN B   6     -18.775  56.344  13.6200  0.00  0.00     0.000 N
ATOM    104  HD  SGN B   6     -18.649  57.185  13.4550  0.00  0.00     0.000 HD
ATOM    104 @NS  SGN B   6     -17.939  57.312  14.6770  0.00  0.00     0.000 S
ATOM    105   O  SGN B   6     -16.529  57.158  14.3930  0.00  0.00     0.000 OA
ATOM    106   O  SGN B   6     -18.396  58.664  14.4550  0.00  0.00     0.000 OA
ATOM    107   O  SGN B   6     -18.263  56.830  16.0010  0.00  0.00     0.000 OA
ENDBRANCH 97 104
BRANCH 100 108
ATOM    108   C  SGN B   6     -19.932  53.291   9.6160  0.00  0.00     0.000 C
ATOM    109   O  SGN B   6     -20.863  52.769  10.5320  0.00  0.00     0.000 O
ATOM    110  @S  SGN B   6     -22.122  51.902  10.1690  0.00  0.00     0.000 S
ATOM    111   O  SGN B   6     -21.695  51.000   9.1260  0.00  0.00     0.000 OA
ATOM    112   O  SGN B   6     -22.498  51.195  11.3830  0.00  0.00     0.000 OA
ATOM    113   O  SGN B   6     -23.127  52.839   9.7210  0.00  0.00     0.000 OA
ENDBRANCH 100 108
ENDBRANCH 95 99
ENDBRANCH 79 95
ENDBRANCH 78 82
ENDBRANCH 58 78
ENDBRANCH 57 61
ENDBRANCH 41 57
ENDBRANCH 40 44
ENDBRANCH 20 40
ENDBRANCH 19 23
ENDBRANCH 1 19
TORSDOF 22
ENDMDL
MODEL 10
REMARK VINA RESULT:      -4.6      2.631     14.726
ROOT
ATOM      1  C1  IDS B   1     -29.325  48.641  10.6360  0.00  0.00     0.000 C
ATOM      2  C2  IDS B   1     -29.484  47.459  11.5560  0.00  0.00     0.000 C
ATOM      3  C3  IDS B   1     -30.413  47.666  12.7760  0.00  0.00     0.000 C
ATOM      4  C4  IDS B   1     -31.547  48.731  12.5340  0.00  0.00     0.000 C
ATOM      5  C5  IDS B   1     -31.141  49.812  11.5030  0.00  0.00     0.000 C
ATOM      6  O5  IDS B   1     -30.590  49.209  10.3630  0.00  0.00     0.000 O
ATOM      7   O  IDS B   1     -29.589  48.039  13.8760  0.00  0.00     0.000 O
ATOM      9  HD  IDS B   1     -30.394  48.328  14.0070  0.00  0.00     0.000 HD
ATOM      9   O  IDS B   1     -32.673  48.050  12.0280  0.00  0.00     0.000 O
ATOM     11  HD  IDS B   1     -33.479  48.339  12.1590  0.00  0.00     0.000 HD
ENDROOT
BRANCH 2 11
ATOM     11   O  IDS B   1     -29.999  46.384  10.8490  0.00  0.00     0.000 O
ATOM     12  @S  IDS B   1     -30.331  45.012  11.4680  0.00  0.00     0.000 S
ATOM     13   O  IDS B   1     -29.442  44.923  12.6090  0.00  0.00     0.000 OA
ATOM     14   O  IDS B   1     -31.730  45.057  11.8540  0.00  0.00     0.000 OA
ATOM     15   O  IDS B   1     -30.063  44.035  10.4310  0.00  0.00     0.000 OA
ENDBRANCH 2 11
BRANCH 5 16
ATOM     16 @CA  IDS B   1     -32.226  50.801  11.0890  0.00  0.00     0.000 C
ATOM     17   O  IDS B   1     -31.975  51.775  10.3820  0.00  0.00     0.000 OA
ATOM     18   O  IDS B   1     -33.390  50.636  11.4460  0.00  0.00     0.000 OA
ENDBRANCH 5 16
BRANCH 1 19
ATOM     19  O4  SGN B   2     -28.478  49.577  11.2690  0.00  0.00     0.000 O
BRANCH 19 23
ATOM     20  C1  SGN B   2     -25.372  51.883   9.9320  0.00  0.00     0.000 C
ATOM     21  C2  SGN B   2     -26.780  52.249   9.5160  0.00  0.00     0.000 C
ATOM     22  C3  SGN B   2     -27.744  51.714  10.5130  0.00  0.00     0.000 C
ATOM     23  C4  SGN B   2     -27.583  50.213  10.4300  0.00  0.00     0.000 C
ATOM     24  C5  SGN B   2     -26.208  49.939  10.9330  0.00  0.00     0.000 C
ATOM     25  O5  SGN B   2     -25.284  50.470  10.0550  0.00  0.00     0.000 O
ATOM     26   O  SGN B   2     -29.029  52.083  10.1560  0.00  0.00     0.000 O
ATOM     28  HD  SGN B   2     -29.848  52.130   9.8780  0.00  0.00     0.000 HD
BRANCH 21 30
ATOM     28   N  SGN B   2     -26.664  53.675   9.4230  0.00  0.00     0.000 N
ATOM     30  HD  SGN B   2     -27.503  53.868   9.3310  0.00  0.00     0.000 HD
ATOM     30 @NS  SGN B   2     -26.370  54.295   7.9500  0.00  0.00     0.000 S
ATOM     31   O  SGN B   2     -26.439  53.253   6.9800  0.00  0.00     0.000 OA
ATOM     32   O  SGN B   2     -27.402  55.232   7.7740  0.00  0.00     0.000 OA
ATOM     33   O  SGN B   2     -25.072  54.854   8.0070  0.00  0.00     0.000 OA
ENDBRANCH 21 30
BRANCH 24 34
ATOM     34   C  SGN B   2     -25.867  48.504  11.0980  0.00  0.00     0.000 C
ATOM     35   O  SGN B   2     -26.075  48.175  12.4260  0.00  0.00     0.000 O
ATOM     36  @S  SGN B   2     -26.041  46.745  12.9530  0.00  0.00     0.000 S
ATOM     37   O  SGN B   2     -24.664  46.546  13.3560  0.00  0.00     0.000 OA
ATOM     38   O  SGN B   2     -26.980  46.685  14.0490  0.00  0.00     0.000 OA
ATOM     39   O  SGN B   2     -26.453  45.915  11.8290  0.00  0.00     0.000 OA
ENDBRANCH 24 34
BRANCH 20 40
ATOM     40  O4  IDS B   3     -25.035  52.517  11.1270  0.00  0.00     0.000 O
BRANCH 40 44
ATOM     41  C1  IDS B   3     -23.343  54.169  13.7180  0.00  0.00     0.000 C
ATOM     42  C2  IDS B   3     -23.853  54.946  12.5060  0.00  0.00     0.000 C
ATOM     43  C3  IDS B   3     -23.538  54.321  11.1330  0.00  0.00     0.000 C
ATOM     44  C4  IDS B   3     -23.679  52.812  11.1790  0.00  0.00     0.000 C
ATOM     45  C5  IDS B   3     -23.057  52.213  12.4500  0.00  0.00     0.000 C
ATOM     46  O5  IDS B   3     -23.619  52.784  13.5750  0.00  0.00     0.000 O
ATOM     47   O  IDS B   3     -22.209  54.631  10.7710  0.00  0.00     0.000 O
ATOM     49  HD  IDS B   3     -23.039  54.424  10.6330  0.00  0.00     0.000 HD
BRANCH 42 49
ATOM     49   O  IDS B   3     -25.244  55.054  12.6000  0.00  0.00     0.000 O
ATOM     50   O  IDS B   3     -25.067  57.243  13.4510  0.00  0.00     0.000 OA
ATOM     51   O  IDS B   3     -26.804  56.738  11.9240  0.00  0.00     0.000 OA
ATOM     52   O  IDS B   3     -26.829  55.827  14.1010  0.00  0.00     0.000 OA
ATOM     53  @S  IDS B   3     -26.032  56.291  13.0410  0.00  0.00     0.000 S
ENDBRANCH 42 49
BRANCH 45 54
ATOM     54 @CA  IDS B   3     -23.126  50.691  12.5560  0.00  0.00     0.000 C
ATOM     55   O  IDS B   3     -22.594  49.977  11.7500  0.00  0.00     0.000 OA
ATOM     56   O  IDS B   3     -23.691  50.161  13.4550  0.00  0.00     0.000 OA
ENDBRANCH 45 54
BRANCH 41 57
ATOM     57  O4  SGN B   4     -21.984  54.407  13.8860  0.00  0.00     0.000 O
BRANCH 57 61
ATOM     58  C1  SGN B   4     -19.153  54.634  16.8750  0.00  0.00     0.000 C
ATOM     59  C2  SGN B   4     -19.636  53.234  16.5320  0.00  0.00     0.000 C
ATOM     60  C3  SGN B   4     -20.357  53.250  15.1880  0.00  0.00     0.000 C
ATOM     61  C4  SGN B   4     -21.501  54.271  15.1860  0.00  0.00     0.000 C
ATOM     62  C5  SGN B   4     -20.929  55.615  15.6300  0.00  0.00     0.000 C
ATOM     63  O5  SGN B   4     -20.271  55.506  16.8780  0.00  0.00     0.000 O
ATOM     64   O  SGN B   4     -20.898  51.968  14.9470  0.00  0.00     0.000 O
ATOM     66  HD  SGN B   4     -21.758  51.925  14.8520  0.00  0.00     0.000 HD
BRANCH 59 68
ATOM     66   N  SGN B   4     -18.469  52.377  16.4920  0.00  0.00     0.000 N
ATOM     68  HD  SGN B   4     -19.320  52.303  16.3540  0.00  0.00     0.000 HD
ATOM     68 @NS  SGN B   4     -17.779  51.864  17.8890  0.00  0.00     0.000 S
ATOM     69   O  SGN B   4     -17.837  52.935  18.8390  0.00  0.00     0.000 OA
ATOM     70   O  SGN B   4     -18.551  50.737  18.3250  0.00  0.00     0.000 OA
ATOM     71   O  SGN B   4     -16.438  51.526  17.5190  0.00  0.00     0.000 OA
ENDBRANCH 59 68
BRANCH 62 72
ATOM     72   C  SGN B   4     -21.997  56.686  15.7910  0.00  0.00     0.000 C
ATOM     73   O  SGN B   4     -23.113  56.028  16.3110  0.00  0.00     0.000 O
ATOM     74  @S  SGN B   4     -24.184  56.602  17.2550  0.00  0.00     0.000 S
ATOM     75   O  SGN B   4     -24.762  57.721  16.6070  0.00  0.00     0.000 OA
ATOM     76   O  SGN B   4     -25.117  55.529  17.4210  0.00  0.00     0.000 OA
ATOM     77   O  SGN B   4     -23.492  56.987  18.4380  0.00  0.00     0.000 OA
ENDBRANCH 62 72
BRANCH 58 78
ATOM     78  O4  IDS B   5     -18.156  55.043  15.9610  0.00  0.00     0.000 O
BRANCH 78 82
ATOM     79  C1  IDS B   5     -15.224  55.893  14.3240  0.00  0.00     0.000 C
ATOM     80  C2  IDS B   5     -15.211  54.767  15.3130  0.00  0.00     0.000 C
ATOM     81  C3  IDS B   5     -15.846  55.118  16.6560  0.00  0.00     0.000 C
ATOM     82  C4  IDS B   5     -17.152  55.872  16.5060  0.00  0.00     0.000 C
ATOM     83  C5  IDS B   5     -16.909  57.012  15.5700  0.00  0.00     0.000 C
ATOM     84  O5  IDS B   5     -16.497  56.513  14.3120  0.00  0.00     0.000 O
ATOM     85   O  IDS B   5     -14.950  55.952  17.3490  0.00  0.00     0.000 O
ATOM     87  HD  IDS B   5     -15.785  56.092  17.1670  0.00  0.00     0.000 HD
BRANCH 80 87
ATOM     87   O  IDS B   5     -15.936  53.726  14.7880  0.00  0.00     0.000 O
ATOM     88  @S  IDS B   5     -15.384  52.456  14.1340  0.00  0.00     0.000 S
ATOM     89   O  IDS B   5     -14.476  51.920  15.0820  0.00  0.00     0.000 OA
ATOM     90   O  IDS B   5     -16.518  51.638  13.8840  0.00  0.00     0.000 OA
ATOM     91   O  IDS B   5     -14.753  52.876  12.9320  0.00  0.00     0.000 OA
ENDBRANCH 80 87
BRANCH 83 92
ATOM     92 @CA  IDS B   5     -18.084  57.978  15.4620  0.00  0.00     0.000 C
ATOM     93   O  IDS B   5     -18.512  58.335  14.3620  0.00  0.00     0.000 OA
ATOM     94   O  IDS B   5     -18.626  58.426  16.4800  0.00  0.00     0.000 OA
ENDBRANCH 83 92
BRANCH 79 95
ATOM     95  O4  SGN B   6     -14.207  56.788  14.6280  0.00  0.00     0.000 O
BRANCH 95 99
ATOM     96  C1  SGN B   6     -12.417  60.031  12.7590  0.00  0.00     0.000 C
ATOM     97  C2  SGN B   6     -13.873  60.217  13.1670  0.00  0.00     0.000 C
ATOM     98  C3  SGN B   6     -14.150  59.201  14.2760  0.00  0.00     0.000 C
ATOM     99  C4  SGN B   6     -13.991  57.787  13.6470  0.00  0.00     0.000 C
ATOM    100  C5  SGN B   6     -12.523  57.687  13.1420  0.00  0.00     0.000 C
ATOM    101  O5  SGN B   6     -12.216  58.736  12.2280  0.00  0.00     0.000 O
BRANCH 97 104
ATOM    102   N  SGN B   6     -13.694  61.667  13.2890  0.00  0.00     0.000 N
ATOM    104  HD  SGN B   6     -14.394  62.017  13.6600  0.00  0.00     0.000 HD
ATOM    104 @NS  SGN B   6     -14.723  62.644  12.4300  0.00  0.00     0.000 S
ATOM    105   O  SGN B   6     -15.656  61.790  11.7290  0.00  0.00     0.000 OA
ATOM    106   O  SGN B   6     -15.381  63.500  13.3890  0.00  0.00     0.000 OA
ATOM    107   O  SGN B   6     -13.893  63.385  11.5070  0.00  0.00     0.000 OA
ENDBRANCH 97 104
BRANCH 100 108
ATOM    108   C  SGN B   6     -12.145  56.391  12.4350  0.00  0.00     0.000 C
ATOM    109   O  SGN B   6     -11.735  56.677  11.1210  0.00  0.00     0.000 O
ATOM    110  @S  SGN B   6     -11.267  55.623  10.0530  0.00  0.00     0.000 S
ATOM    111   O  SGN B   6     -12.149  54.490  10.2020  0.00  0.00     0.000 OA
ATOM    112   O  SGN B   6     -11.411  56.263   8.7550  0.00  0.00     0.000 OA
ATOM    113   O  SGN B   6      -9.896  55.311  10.3850  0.00  0.00     0.000 OA
ENDBRANCH 100 108
ENDBRANCH 95 99
ENDBRANCH 79 95
ENDBRANCH 78 82
ENDBRANCH 58 78
ENDBRANCH 57 61
ENDBRANCH 41 57
ENDBRANCH 40 44
ENDBRANCH 20 40
ENDBRANCH 19 23
ENDBRANCH 1 19
TORSDOF 22
ENDMDL
MODEL 11
REMARK VINA RESULT:      -4.2      4.265     14.625
ROOT
ATOM      1  C1  IDS B   1     -30.361  49.273  11.0140  0.00  0.00     0.000 C
ATOM      2  C2  IDS B   1     -30.555  47.878  11.5480  0.00  0.00     0.000 C
ATOM      3  C3  IDS B   1     -30.958  47.769  13.0380  0.00  0.00     0.000 C
ATOM      4  C4  IDS B   1     -31.758  49.016  13.5700  0.00  0.00     0.000 C
ATOM      5  C5  IDS B   1     -31.403  50.320  12.8150  0.00  0.00     0.000 C
ATOM      6  O5  IDS B   1     -31.431  50.098  11.4300  0.00  0.00     0.000 O
ATOM      7   O  IDS B   1     -29.762  47.572  13.7850  0.00  0.00     0.000 O
ATOM      9  HD  IDS B   1     -30.369  47.918  14.2970  0.00  0.00     0.000 HD
ATOM      9   O  IDS B   1     -33.131  48.761  13.3730  0.00  0.00     0.000 O
ATOM     11  HD  IDS B   1     -33.738  49.107  13.8850  0.00  0.00     0.000 HD
ENDROOT
BRANCH 2 11
ATOM     11   O  IDS B   1     -31.549  47.237  10.8250  0.00  0.00     0.000 O
ATOM     12  @S  IDS B   1     -31.300  46.086   9.8310  0.00  0.00     0.000 S
ATOM     13   O  IDS B   1     -29.939  46.304   9.3830  0.00  0.00     0.000 OA
ATOM     14   O  IDS B   1     -31.450  44.851  10.5790  0.00  0.00     0.000 OA
ATOM     15   O  IDS B   1     -32.297  46.239   8.7910  0.00  0.00     0.000 OA
ENDBRANCH 2 11
BRANCH 5 16
ATOM     16 @CA  IDS B   1     -32.233  51.554  13.1550  0.00  0.00     0.000 C
ATOM     17   O  IDS B   1     -33.288  51.468  13.7800  0.00  0.00     0.000 OA
ATOM     18   O  IDS B   1     -31.854  52.673  12.8200  0.00  0.00     0.000 OA
ENDBRANCH 5 16
BRANCH 1 19
ATOM     19  O4  SGN B   2     -29.129  49.761  11.5040  0.00  0.00     0.000 O
BRANCH 19 23
ATOM     20  C1  SGN B   2     -25.972  51.666   9.7270  0.00  0.00     0.000 C
ATOM     21  C2  SGN B   2     -27.274  52.418   9.8940  0.00  0.00     0.000 C
ATOM     22  C3  SGN B   2     -28.046  51.826  11.0180  0.00  0.00     0.000 C
ATOM     23  C4  SGN B   2     -28.350  50.415  10.5690  0.00  0.00     0.000 C
ATOM     24  C5  SGN B   2     -27.029  49.730  10.5130  0.00  0.00     0.000 C
ATOM     25  O5  SGN B   2     -26.262  50.292   9.5100  0.00  0.00     0.000 O
ATOM     26   O  SGN B   2     -29.218  52.540  11.1980  0.00  0.00     0.000 O
ATOM     28  HD  SGN B   2     -30.032  52.833  11.2270  0.00  0.00     0.000 HD
BRANCH 21 30
ATOM     28   N  SGN B   2     -26.628  53.081   8.7990  0.00  0.00     0.000 N
ATOM     30  HD  SGN B   2     -25.833  53.148   9.1370  0.00  0.00     0.000 HD
ATOM     30 @NS  SGN B   2     -26.733  54.702   8.7530  0.00  0.00     0.000 S
ATOM     31   O  SGN B   2     -27.350  55.165   9.9500  0.00  0.00     0.000 OA
ATOM     32   O  SGN B   2     -25.393  55.117   8.6690  0.00  0.00     0.000 OA
ATOM     33   O  SGN B   2     -27.518  55.015   7.6200  0.00  0.00     0.000 OA
ENDBRANCH 21 30
BRANCH 24 34
ATOM     34   C  SGN B   2     -27.080  48.271  10.2450  0.00  0.00     0.000 C
ATOM     35   O  SGN B   2     -26.200  47.655  11.1170  0.00  0.00     0.000 O
ATOM     36  @S  SGN B   2     -26.121  46.145  11.3040  0.00  0.00     0.000 S
ATOM     37   O  SGN B   2     -25.116  45.719  10.3500  0.00  0.00     0.000 OA
ATOM     38   O  SGN B   2     -25.745  45.915  12.6800  0.00  0.00     0.000 OA
ATOM     39   O  SGN B   2     -27.459  45.653  11.0090  0.00  0.00     0.000 OA
ENDBRANCH 24 34
BRANCH 20 40
ATOM     40  O4  IDS B   3     -25.159  51.841  10.8470  0.00  0.00     0.000 O
BRANCH 40 44
ATOM     41  C1  IDS B   3     -22.473  52.728  12.9210  0.00  0.00     0.000 C
ATOM     42  C2  IDS B   3     -23.130  53.768  12.0160  0.00  0.00     0.000 C
ATOM     43  C3  IDS B   3     -23.370  53.327  10.5590  0.00  0.00     0.000 C
ATOM     44  C4  IDS B   3     -23.816  51.880  10.4960  0.00  0.00     0.000 C
ATOM     45  C5  IDS B   3     -22.999  50.983  11.4390  0.00  0.00     0.000 C
ATOM     46  O5  IDS B   3     -23.074  51.455  12.7350  0.00  0.00     0.000 O
ATOM     47   O  IDS B   3     -22.168  53.452   9.8280  0.00  0.00     0.000 O
ATOM     49  HD  IDS B   3     -23.026  53.420   9.9390  0.00  0.00     0.000 HD
BRANCH 42 49
ATOM     49   O  IDS B   3     -24.376  54.104  12.5550  0.00  0.00     0.000 O
ATOM     50   O  IDS B   3     -23.491  56.068  13.5070  0.00  0.00     0.000 OA
ATOM     51   O  IDS B   3     -25.664  56.120  12.5680  0.00  0.00     0.000 OA
ATOM     52   O  IDS B   3     -25.250  54.901  14.5460  0.00  0.00     0.000 OA
ATOM     53  @S  IDS B   3     -24.716  55.376  13.3360  0.00  0.00     0.000 S
ENDBRANCH 42 49
BRANCH 45 54
ATOM     54 @CA  IDS B   3     -23.364  49.500  11.4100  0.00  0.00     0.000 C
ATOM     55   O  IDS B   3     -23.710  48.916  12.4020  0.00  0.00     0.000 OA
ATOM     56   O  IDS B   3     -23.341  48.879  10.4000  0.00  0.00     0.000 OA
ENDBRANCH 45 54
BRANCH 41 57
ATOM     57  O4  SGN B   4     -21.106  52.692  12.6730  0.00  0.00     0.000 O
BRANCH 57 61
ATOM     58  C1  SGN B   4     -17.724  51.305  14.5810  0.00  0.00     0.000 C
ATOM     59  C2  SGN B   4     -19.006  50.547  14.8840  0.00  0.00     0.000 C
ATOM     60  C3  SGN B   4     -20.070  50.894  13.8460  0.00  0.00     0.000 C
ATOM     61  C4  SGN B   4     -20.298  52.408  13.7730  0.00  0.00     0.000 C
ATOM     62  C5  SGN B   4     -18.942  53.076  13.5590  0.00  0.00     0.000 C
ATOM     63  O5  SGN B   4     -18.016  52.692  14.5580  0.00  0.00     0.000 O
ATOM     64   O  SGN B   4     -21.284  50.274  14.2150  0.00  0.00     0.000 O
ATOM     66  HD  SGN B   4     -21.957  50.800  14.3600  0.00  0.00     0.000 HD
BRANCH 59 68
ATOM     66   N  SGN B   4     -18.872  49.770  16.0990  0.00  0.00     0.000 N
ATOM     68  HD  SGN B   4     -18.590  50.530  15.7930  0.00  0.00     0.000 HD
ATOM     68 @NS  SGN B   4     -17.906  48.445  16.1230  0.00  0.00     0.000 S
ATOM     69   O  SGN B   4     -18.034  47.772  14.8640  0.00  0.00     0.000 OA
ATOM     70   O  SGN B   4     -16.571  48.928  16.3230  0.00  0.00     0.000 OA
ATOM     71   O  SGN B   4     -18.399  47.667  17.2190  0.00  0.00     0.000 OA
ENDBRANCH 59 68
BRANCH 62 72
ATOM     72   C  SGN B   4     -19.019  54.595  13.5950  0.00  0.00     0.000 C
ATOM     73   O  SGN B   4     -19.386  54.919  14.9030  0.00  0.00     0.000 O
ATOM     74  @S  SGN B   4     -18.998  56.178  15.6990  0.00  0.00     0.000 S
ATOM     75   O  SGN B   4     -19.455  57.300  14.9650  0.00  0.00     0.000 OA
ATOM     76   O  SGN B   4     -19.685  56.029  16.9470  0.00  0.00     0.000 OA
ATOM     77   O  SGN B   4     -17.577  56.158  15.7880  0.00  0.00     0.000 OA
ENDBRANCH 62 72
BRANCH 58 78
ATOM     78  O4  IDS B   5     -17.168  50.853  13.3620  0.00  0.00     0.000 O
BRANCH 78 82
ATOM     79  C1  IDS B   5     -15.308  49.743  10.6600  0.00  0.00     0.000 C
ATOM     80  C2  IDS B   5     -15.589  48.802  11.7920  0.00  0.00     0.000 C
ATOM     81  C3  IDS B   5     -15.267  49.380  13.1670  0.00  0.00     0.000 C
ATOM     82  C4  IDS B   5     -15.758  50.804  13.3330  0.00  0.00     0.000 C
ATOM     83  C5  IDS B   5     -15.273  51.588  12.1560  0.00  0.00     0.000 C
ATOM     84  O5  IDS B   5     -15.804  51.033  10.9670  0.00  0.00     0.000 O
ATOM     85   O  IDS B   5     -13.867  49.393  13.3110  0.00  0.00     0.000 O
ATOM     87  HD  IDS B   5     -14.425  50.048  13.4090  0.00  0.00     0.000 HD
BRANCH 80 87
ATOM     87   O  IDS B   5     -16.930  48.509  11.7850  0.00  0.00     0.000 O
ATOM     88  @S  IDS B   5     -17.585  47.201  11.3330  0.00  0.00     0.000 S
ATOM     89   O  IDS B   5     -16.921  46.185  12.0670  0.00  0.00     0.000 OA
ATOM     90   O  IDS B   5     -18.963  47.341  11.6470  0.00  0.00     0.000 OA
ATOM     91   O  IDS B   5     -17.362  47.114   9.9330  0.00  0.00     0.000 OA
ENDBRANCH 80 87
BRANCH 83 92
ATOM     92 @CA  IDS B   5     -15.529  53.086  12.2700  0.00  0.00     0.000 C
ATOM     93   O  IDS B   5     -16.119  53.699  11.3770  0.00  0.00     0.000 OA
ATOM     94   O  IDS B   5     -15.142  53.717  13.2610  0.00  0.00     0.000 OA
ENDBRANCH 83 92
BRANCH 79 95
ATOM     95  O4  SGN B   6     -13.946  49.753  10.3920  0.00  0.00     0.000 O
BRANCH 95 99
ATOM     96  C1  SGN B   6     -11.528  50.934   7.2350  0.00  0.00     0.000 C
ATOM     97  C2  SGN B   6     -12.491  51.988   7.7660  0.00  0.00     0.000 C
ATOM     98  C3  SGN B   6     -12.849  51.572   9.1940  0.00  0.00     0.000 C
ATOM     99  C4  SGN B   6     -13.605  50.217   9.0980  0.00  0.00     0.000 C
ATOM    100  C5  SGN B   6     -12.622  49.204   8.4430  0.00  0.00     0.000 C
ATOM    101  O5  SGN B   6     -12.161  49.671   7.1780  0.00  0.00     0.000 O
BRANCH 97 104
ATOM    102   N  SGN B   6     -11.673  53.169   7.4730  0.00  0.00     0.000 N
ATOM    104  HD  SGN B   6     -12.098  53.884   7.7120  0.00  0.00     0.000 HD
ATOM    104 @NS  SGN B   6     -12.249  54.243   6.3480  0.00  0.00     0.000 S
ATOM    105   O  SGN B   6     -13.537  53.760   5.8990  0.00  0.00     0.000 OA
ATOM    106   O  SGN B   6     -12.347  55.524   7.0070  0.00  0.00     0.000 OA
ATOM    107   O  SGN B   6     -11.285  54.248   5.2700  0.00  0.00     0.000 OA
ENDBRANCH 97 104
BRANCH 100 108
ATOM    108   C  SGN B   6     -13.168  47.802   8.1990  0.00  0.00     0.000 C
ATOM    109   O  SGN B   6     -13.403  47.625   6.8250  0.00  0.00     0.000 O
ATOM    110  @S  SGN B   6     -13.971  46.325   6.1490  0.00  0.00     0.000 S
ATOM    111   O  SGN B   6     -15.007  45.841   7.0300  0.00  0.00     0.000 OA
ATOM    112   O  SGN B   6     -14.498  46.731   4.8550  0.00  0.00     0.000 OA
ATOM    113   O  SGN B   6     -12.853  45.415   6.0480  0.00  0.00     0.000 OA
ENDBRANCH 100 108
ENDBRANCH 95 99
ENDBRANCH 79 95
ENDBRANCH 78 82
ENDBRANCH 58 78
ENDBRANCH 57 61
ENDBRANCH 41 57
ENDBRANCH 40 44
ENDBRANCH 20 40
ENDBRANCH 19 23
ENDBRANCH 1 19
TORSDOF 22
ENDMDL
MODEL 12
REMARK VINA RESULT:      -4.0      3.188      4.673
ROOT
ATOM      1  C1  IDS B   1     -15.610  51.448  16.6020  0.00  0.00     0.000 C
ATOM      2  C2  IDS B   1     -15.524  50.789  17.9530  0.00  0.00     0.000 C
ATOM      3  C3  IDS B   1     -15.447  49.243  17.9530  0.00  0.00     0.000 C
ATOM      4  C4  IDS B   1     -14.787  48.643  16.6550  0.00  0.00     0.000 C
ATOM      5  C5  IDS B   1     -14.983  49.546  15.4130  0.00  0.00     0.000 C
ATOM      6  O5  IDS B   1     -14.659  50.874  15.7280  0.00  0.00     0.000 O
ATOM      7   O  IDS B   1     -16.773  48.754  18.1250  0.00  0.00     0.000 O
ATOM      9  HD  IDS B   1     -16.291  48.151  17.7320  0.00  0.00     0.000 HD
ATOM      9   O  IDS B   1     -13.402  48.526  16.8940  0.00  0.00     0.000 O
ATOM     11  HD  IDS B   1     -12.920  47.923  16.5010  0.00  0.00     0.000 HD
ENDROOT
BRANCH 2 11
ATOM     11   O  IDS B   1     -14.395  51.237  18.6200  0.00  0.00     0.000 O
ATOM     12  @S  IDS B   1     -14.422  52.122  19.8820  0.00  0.00     0.000 S
ATOM     13   O  IDS B   1     -15.679  52.834  19.7790  0.00  0.00     0.000 OA
ATOM     14   O  IDS B   1     -14.382  51.223  21.0210  0.00  0.00     0.000 OA
ATOM     15   O  IDS B   1     -13.250  52.971  19.7940  0.00  0.00     0.000 OA
ENDBRANCH 2 11
BRANCH 5 16
ATOM     16 @CA  IDS B   1     -14.252  49.126  14.1420  0.00  0.00     0.000 C
ATOM     17   O  IDS B   1     -14.608  49.519  13.0340  0.00  0.00     0.000 OA
ATOM     18   O  IDS B   1     -13.272  48.386  14.2020  0.00  0.00     0.000 OA
ENDBRANCH 5 16
BRANCH 1 19
ATOM     19  O4  SGN B   2     -16.921  51.265  16.1090  0.00  0.00     0.000 O
BRANCH 19 23
ATOM     20  C1  SGN B   2     -20.271  53.394  17.1120  0.00  0.00     0.000 C
ATOM     21  C2  SGN B   2     -18.924  53.896  17.5820  0.00  0.00     0.000 C
ATOM     22  C3  SGN B   2     -17.862  53.379  16.6790  0.00  0.00     0.000 C
ATOM     23  C4  SGN B   2     -17.912  51.878  16.8520  0.00  0.00     0.000 C
ATOM     24  C5  SGN B   2     -19.229  51.465  16.2910  0.00  0.00     0.000 C
ATOM     25  O5  SGN B   2     -20.244  51.974  17.0780  0.00  0.00     0.000 O
ATOM     26   O  SGN B   2     -16.633  53.871  17.0830  0.00  0.00     0.000 O
ATOM     28  HD  SGN B   2     -15.839  54.000  17.4040  0.00  0.00     0.000 HD
BRANCH 21 30
ATOM     28   N  SGN B   2     -19.949  54.850  17.8900  0.00  0.00     0.000 N
ATOM     30  HD  SGN B   2     -19.795  55.417  17.2530  0.00  0.00     0.000 HD
ATOM     30 @NS  SGN B   2     -19.584  55.996  18.9830  0.00  0.00     0.000 S
ATOM     31   O  SGN B   2     -18.202  55.901  19.3170  0.00  0.00     0.000 OA
ATOM     32   O  SGN B   2     -19.871  57.196  18.3120  0.00  0.00     0.000 OA
ATOM     33   O  SGN B   2     -20.400  55.742  20.1100  0.00  0.00     0.000 OA
ENDBRANCH 21 30
BRANCH 24 34
ATOM     34   C  SGN B   2     -19.450  50.000  16.2020  0.00  0.00     0.000 C
ATOM     35   O  SGN B   2     -19.844  49.561  17.4540  0.00  0.00     0.000 O
ATOM     36  @S  SGN B   2     -20.372  48.156  17.7240  0.00  0.00     0.000 S
ATOM     37   O  SGN B   2     -19.191  47.394  18.0800  0.00  0.00     0.000 OA
ATOM     38   O  SGN B   2     -21.331  48.272  18.7970  0.00  0.00     0.000 OA
ATOM     39   O  SGN B   2     -20.991  47.734  16.4750  0.00  0.00     0.000 OA
ENDBRANCH 24 34
BRANCH 20 40
ATOM     40  O4  IDS B   3     -20.581  53.924  15.8600  0.00  0.00     0.000 O
BRANCH 40 44
ATOM     41  C1  IDS B   3     -23.455  55.261  14.3580  0.00  0.00     0.000 C
ATOM     42  C2  IDS B   3     -23.486  54.793  15.8120  0.00  0.00     0.000 C
ATOM     43  C3  IDS B   3     -22.857  53.413  16.0810  0.00  0.00     0.000 C
ATOM     44  C4  IDS B   3     -21.606  53.215  15.2490  0.00  0.00     0.000 C
ATOM     45  C5  IDS B   3     -21.792  53.698  13.8020  0.00  0.00     0.000 C
ATOM     46  O5  IDS B   3     -22.178  55.024  13.7850  0.00  0.00     0.000 O
ATOM     47   O  IDS B   3     -23.782  52.402  15.7370  0.00  0.00     0.000 O
ATOM     49  HD  IDS B   3     -23.110  52.749  16.1590  0.00  0.00     0.000 HD
BRANCH 42 49
ATOM     49   O  IDS B   3     -22.790  55.722  16.5920  0.00  0.00     0.000 O
ATOM     50   O  IDS B   3     -24.777  56.901  17.0510  0.00  0.00     0.000 OA
ATOM     51   O  IDS B   3     -23.170  56.640  18.7690  0.00  0.00     0.000 OA
ATOM     52   O  IDS B   3     -22.710  58.015  16.9070  0.00  0.00     0.000 OA
ATOM     53  @S  IDS B   3     -23.399  56.885  17.3800  0.00  0.00     0.000 S
ENDBRANCH 42 49
BRANCH 45 54
ATOM     54 @CA  IDS B   3     -20.586  53.502  12.8860  0.00  0.00     0.000 C
ATOM     55   O  IDS B   3     -20.466  54.115  11.8600  0.00  0.00     0.000 OA
ATOM     56   O  IDS B   3     -19.712  52.751  13.1700  0.00  0.00     0.000 OA
ENDBRANCH 45 54
BRANCH 41 57
ATOM     57  O4  SGN B   4     -24.464  54.627  13.6430  0.00  0.00     0.000 O
BRANCH 57 61
ATOM     58  C1  SGN B   4     -27.087  55.372  10.5510  0.00  0.00     0.000 C
ATOM     59  C2  SGN B   4     -25.657  55.066  10.1390  0.00  0.00     0.000 C
ATOM     60  C3  SGN B   4     -24.905  54.437  11.3080  0.00  0.00     0.000 C
ATOM     61  C4  SGN B   4     -24.968  55.332  12.5510  0.00  0.00     0.000 C
ATOM     62  C5  SGN B   4     -26.436  55.653  12.8230  0.00  0.00     0.000 C
ATOM     63  O5  SGN B   4     -27.057  56.222  11.6850  0.00  0.00     0.000 O
ATOM     64   O  SGN B   4     -23.551  54.272  10.9420  0.00  0.00     0.000 O
ATOM     66  HD  SGN B   4     -22.967  54.687  11.4290  0.00  0.00     0.000 HD
BRANCH 59 68
ATOM     66   N  SGN B   4     -25.389  55.505   8.7850  0.00  0.00     0.000 N
ATOM     68  HD  SGN B   4     -25.853  55.777   9.4640  0.00  0.00     0.000 HD
ATOM     68 @NS  SGN B   4     -26.093  54.737   7.5180  0.00  0.00     0.000 S
ATOM     69   O  SGN B   4     -26.138  53.335   7.8120  0.00  0.00     0.000 OA
ATOM     70   O  SGN B   4     -27.412  55.288   7.4010  0.00  0.00     0.000 OA
ATOM     71   O  SGN B   4     -25.247  55.042   6.4040  0.00  0.00     0.000 OA
ENDBRANCH 59 68
BRANCH 62 72
ATOM     72   C  SGN B   4     -26.623  56.643  13.9630  0.00  0.00     0.000 C
ATOM     73   O  SGN B   4     -26.319  57.895  13.4250  0.00  0.00     0.000 O
ATOM     74  @S  SGN B   4     -26.920  59.255  13.8220  0.00  0.00     0.000 S
ATOM     75   O  SGN B   4     -26.664  59.444  15.2020  0.00  0.00     0.000 OA
ATOM     76   O  SGN B   4     -26.219  60.200  13.0060  0.00  0.00     0.000 OA
ATOM     77   O  SGN B   4     -28.316  59.154  13.5620  0.00  0.00     0.000 OA
ENDBRANCH 62 72
BRANCH 58 78
ATOM     78  O4  IDS B   5     -27.791  54.172  10.7990  0.00  0.00     0.000 O
BRANCH 78 82
ATOM     79  C1  IDS B   5     -29.973  51.521  11.2540  0.00  0.00     0.000 C
ATOM     80  C2  IDS B   5     -29.443  51.806   9.8820  0.00  0.00     0.000 C
ATOM     81  C3  IDS B   5     -29.581  53.266   9.4580  0.00  0.00     0.000 C
ATOM     82  C4  IDS B   5     -29.179  54.233  10.5530  0.00  0.00     0.000 C
ATOM     83  C5  IDS B   5     -29.906  53.833  11.7970  0.00  0.00     0.000 C
ATOM     84  O5  IDS B   5     -29.534  52.517  12.1600  0.00  0.00     0.000 O
ATOM     85   O  IDS B   5     -30.936  53.500   9.1590  0.00  0.00     0.000 O
ATOM     87  HD  IDS B   5     -30.421  53.935   9.7020  0.00  0.00     0.000 HD
BRANCH 80 87
ATOM     87   O  IDS B   5     -28.102  51.511   9.8700  0.00  0.00     0.000 O
ATOM     88  @S  IDS B   5     -27.410  50.402   9.0740  0.00  0.00     0.000 S
ATOM     89   O  IDS B   5     -27.824  50.598   7.7320  0.00  0.00     0.000 OA
ATOM     90   O  IDS B   5     -26.018  50.594   9.2900  0.00  0.00     0.000 OA
ATOM     91   O  IDS B   5     -27.870  49.176   9.6270  0.00  0.00     0.000 OA
ENDBRANCH 80 87
BRANCH 83 92
ATOM     92 @CA  IDS B   5     -29.751  54.825  12.9440  0.00  0.00     0.000 C
ATOM     93   O  IDS B   5     -30.053  56.012  12.8020  0.00  0.00     0.000 OA
ATOM     94   O  IDS B   5     -29.313  54.455  14.0400  0.00  0.00     0.000 OA
ENDBRANCH 83 92
BRANCH 79 95
ATOM     95  O4  SGN B   6     -31.358  51.428  11.2050  0.00  0.00     0.000 O
BRANCH 95 99
ATOM     96  C1  SGN B   6     -34.311  50.375  13.9220  0.00  0.00     0.000 C
ATOM     97  C2  SGN B   6     -33.126  51.146  14.4920  0.00  0.00     0.000 C
ATOM     98  C3  SGN B   6     -32.484  51.889  13.3190  0.00  0.00     0.000 C
ATOM     99  C4  SGN B   6     -31.945  50.810  12.3370  0.00  0.00     0.000 C
ATOM    100  C5  SGN B   6     -33.174  49.977  11.8730  0.00  0.00     0.000 C
ATOM    101  O5  SGN B   6     -33.869  49.415  12.9830  0.00  0.00     0.000 O
BRANCH 97 104
ATOM    102   N  SGN B   6     -33.697  51.961  15.5680  0.00  0.00     0.000 N
ATOM    104  HD  SGN B   6     -33.059  52.302  16.0440  0.00  0.00     0.000 HD
ATOM    104 @NS  SGN B   6     -33.430  51.467  17.1300  0.00  0.00     0.000 S
ATOM    105   O  SGN B   6     -32.607  50.278  17.0800  0.00  0.00     0.000 OA
ATOM    106   O  SGN B   6     -32.769  52.560  17.8050  0.00  0.00     0.000 OA
ATOM    107   O  SGN B   6     -34.733  51.181  17.6870  0.00  0.00     0.000 OA
ENDBRANCH 97 104
BRANCH 100 108
ATOM    108   C  SGN B   6     -32.879  48.815  10.9320  0.00  0.00     0.000 C
ATOM    109   O  SGN B   6     -33.235  47.607  11.5550  0.00  0.00     0.000 O
ATOM    110  @S  SGN B   6     -33.088  46.172  10.9320  0.00  0.00     0.000 S
ATOM    111   O  SGN B   6     -31.823  46.170  10.2360  0.00  0.00     0.000 OA
ATOM    112   O  SGN B   6     -33.102  45.236  12.0450  0.00  0.00     0.000 OA
ATOM    113   O  SGN B   6     -34.215  46.014  10.0410  0.00  0.00     0.000 OA
ENDBRANCH 100 108
ENDBRANCH 95 99
ENDBRANCH 79 95
ENDBRANCH 78 82
ENDBRANCH 58 78
ENDBRANCH 57 61
ENDBRANCH 41 57
ENDBRANCH 40 44
ENDBRANCH 20 40
ENDBRANCH 19 23
ENDBRANCH 1 19
TORSDOF 22
ENDMDL
MODEL 13
REMARK VINA RESULT:      -3.8      4.540      9.564
ROOT
ATOM      1  C1  IDS B   1     -14.642  56.052  15.4560  0.00  0.00     0.000 C
ATOM      2  C2  IDS B   1     -14.062  55.114  16.4820  0.00  0.00     0.000 C
ATOM      3  C3  IDS B   1     -13.115  54.016  15.9420  0.00  0.00     0.000 C
ATOM      4  C4  IDS B   1     -12.363  54.422  14.6200  0.00  0.00     0.000 C
ATOM      5  C5  IDS B   1     -13.161  55.438  13.7670  0.00  0.00     0.000 C
ATOM      6  O5  IDS B   1     -13.626  56.485  14.5750  0.00  0.00     0.000 O
ATOM      7   O  IDS B   1     -13.899  52.843  15.7440  0.00  0.00     0.000 O
ATOM      9  HD  IDS B   1     -13.201  52.814  15.2330  0.00  0.00     0.000 HD
ATOM      9   O  IDS B   1     -11.144  55.028  14.9890  0.00  0.00     0.000 O
ATOM     11  HD  IDS B   1     -10.446  54.999  14.4780  0.00  0.00     0.000 HD
ENDROOT
BRANCH 2 11
ATOM     11   O  IDS B   1     -13.333  55.836  17.4130  0.00  0.00     0.000 O
ATOM     12  @S  IDS B   1     -12.543  55.209  18.5790  0.00  0.00     0.000 S
ATOM     13   O  IDS B   1     -13.234  53.961  18.8330  0.00  0.00     0.000 OA
ATOM     14   O  IDS B   1     -11.186  55.009  18.1020  0.00  0.00     0.000 OA
ATOM     15   O  IDS B   1     -12.622  56.162  19.6680  0.00  0.00     0.000 OA
ENDBRANCH 2 11
BRANCH 5 16
ATOM     16 @CA  IDS B   1     -12.451  56.007  12.5430  0.00  0.00     0.000 C
ATOM     17   O  IDS B   1     -12.923  55.894  11.4130  0.00  0.00     0.000 OA
ATOM     18   O  IDS B   1     -11.387  56.609  12.6630  0.00  0.00     0.000 OA
ENDBRANCH 5 16
BRANCH 1 19
ATOM     19  O4  SGN B   2     -15.654  55.359  14.7550  0.00  0.00     0.000 O
BRANCH 19 23
ATOM     20  C1  SGN B   2     -19.317  56.597  13.4080  0.00  0.00     0.000 C
ATOM     21  C2  SGN B   2     -18.133  56.672  12.4680  0.00  0.00     0.000 C
ATOM     22  C3  SGN B   2     -17.103  55.689  12.8920  0.00  0.00     0.000 C
ATOM     23  C4  SGN B   2     -16.670  56.157  14.2620  0.00  0.00     0.000 C
ATOM     24  C5  SGN B   2     -17.864  55.970  15.1340  0.00  0.00     0.000 C
ATOM     25  O5  SGN B   2     -18.864  56.835  14.7330  0.00  0.00     0.000 O
ATOM     26   O  SGN B   2     -16.037  55.728  12.0090  0.00  0.00     0.000 O
ATOM     28  HD  SGN B   2     -15.283  55.846  11.6000  0.00  0.00     0.000 HD
BRANCH 21 30
ATOM     28   N  SGN B   2     -19.243  56.673  11.5600  0.00  0.00     0.000 N
ATOM     30  HD  SGN B   2     -18.970  56.054  11.0200  0.00  0.00     0.000 HD
ATOM     30 @NS  SGN B   2     -19.196  57.744  10.3400  0.00  0.00     0.000 S
ATOM     31   O  SGN B   2     -17.929  58.395  10.3360  0.00  0.00     0.000 OA
ATOM     32   O  SGN B   2     -19.370  56.949   9.1950  0.00  0.00     0.000 OA
ATOM     33   O  SGN B   2     -20.242  58.665  10.5810  0.00  0.00     0.000 OA
ENDBRANCH 21 30
BRANCH 24 34
ATOM     34   C  SGN B   2     -17.639  56.215  16.5800  0.00  0.00     0.000 C
ATOM     35   O  SGN B   2     -17.955  55.050  17.2550  0.00  0.00     0.000 O
ATOM     36  @S  SGN B   2     -17.655  54.826  18.7330  0.00  0.00     0.000 S
ATOM     37   O  SGN B   2     -18.854  55.275  19.4120  0.00  0.00     0.000 OA
ATOM     38   O  SGN B   2     -17.393  53.415  18.8940  0.00  0.00     0.000 OA
ATOM     39   O  SGN B   2     -16.480  55.641  19.0110  0.00  0.00     0.000 OA
ENDBRANCH 24 34
BRANCH 20 40
ATOM     40  O4  IDS B   3     -19.946  55.357  13.3030  0.00  0.00     0.000 O
BRANCH 40 44
ATOM     41  C1  IDS B   3     -22.486  53.042  12.6000  0.00  0.00     0.000 C
ATOM     42  C2  IDS B   3     -22.302  54.280  11.7250  0.00  0.00     0.000 C
ATOM     43  C3  IDS B   3     -22.126  55.611  12.4820  0.00  0.00     0.000 C
ATOM     44  C4  IDS B   3     -21.269  55.423  13.7180  0.00  0.00     0.000 C
ATOM     45  C5  IDS B   3     -21.643  54.150  14.4930  0.00  0.00     0.000 C
ATOM     46  O5  IDS B   3     -21.552  53.044  13.6700  0.00  0.00     0.000 O
ATOM     47   O  IDS B   3     -23.392  56.088  12.8890  0.00  0.00     0.000 O
ATOM     49  HD  IDS B   3     -22.558  56.151  12.6620  0.00  0.00     0.000 HD
BRANCH 42 49
ATOM     49   O  IDS B   3     -21.160  54.101  10.9360  0.00  0.00     0.000 O
ATOM     50   O  IDS B   3     -22.284  52.543   9.5740  0.00  0.00     0.000 OA
ATOM     51   O  IDS B   3     -20.792  54.084   8.5720  0.00  0.00     0.000 OA
ATOM     52   O  IDS B   3     -19.972  52.366   9.9680  0.00  0.00     0.000 OA
ATOM     53  @S  IDS B   3     -21.048  53.225   9.6860  0.00  0.00     0.000 S
ENDBRANCH 42 49
BRANCH 45 54
ATOM     54 @CA  IDS B   3     -20.847  53.906  15.7730  0.00  0.00     0.000 C
ATOM     55   O  IDS B   3     -21.176  54.390  16.8220  0.00  0.00     0.000 OA
ATOM     56   O  IDS B   3     -19.887  53.209  15.7790  0.00  0.00     0.000 OA
ENDBRANCH 45 54
BRANCH 41 57
ATOM     57  O4  SGN B   4     -23.796  52.988  13.0620  0.00  0.00     0.000 O
BRANCH 57 61
ATOM     58  C1  SGN B   4     -23.638  48.933  13.7900  0.00  0.00     0.000 C
ATOM     59  C2  SGN B   4     -24.134  49.334  12.4110  0.00  0.00     0.000 C
ATOM     60  C3  SGN B   4     -23.779  50.792  12.1360  0.00  0.00     0.000 C
ATOM     61  C4  SGN B   4     -24.325  51.711  13.2350  0.00  0.00     0.000 C
ATOM     62  C5  SGN B   4     -23.845  51.169  14.5790  0.00  0.00     0.000 C
ATOM     63  O5  SGN B   4     -24.208  49.812  14.7460  0.00  0.00     0.000 O
ATOM     64   O  SGN B   4     -24.352  51.175  10.9030  0.00  0.00     0.000 O
ATOM     66  HD  SGN B   4     -24.918  51.831  10.9290  0.00  0.00     0.000 HD
BRANCH 59 68
ATOM     66   N  SGN B   4     -24.861  48.193  11.8920  0.00  0.00     0.000 N
ATOM     68  HD  SGN B   4     -24.661  48.524  12.6670  0.00  0.00     0.000 HD
ATOM     68 @NS  SGN B   4     -24.045  46.913  11.2710  0.00  0.00     0.000 S
ATOM     69   O  SGN B   4     -22.905  47.410  10.5580  0.00  0.00     0.000 OA
ATOM     70   O  SGN B   4     -23.649  46.111  12.3920  0.00  0.00     0.000 OA
ATOM     71   O  SGN B   4     -24.994  46.268  10.4160  0.00  0.00     0.000 OA
ENDBRANCH 59 68
BRANCH 62 72
ATOM     72   C  SGN B   4     -24.429  51.926  15.7630  0.00  0.00     0.000 C
ATOM     73   O  SGN B   4     -24.606  53.238  15.3180  0.00  0.00     0.000 O
ATOM     74  @S  SGN B   4     -25.689  54.237  15.7600  0.00  0.00     0.000 S
ATOM     75   O  SGN B   4     -25.567  54.402  17.1610  0.00  0.00     0.000 OA
ATOM     76   O  SGN B   4     -25.375  55.436  15.0420  0.00  0.00     0.000 OA
ATOM     77   O  SGN B   4     -26.935  53.638  15.4150  0.00  0.00     0.000 OA
ENDBRANCH 62 72
BRANCH 58 78
ATOM     78  O4  IDS B   5     -22.225  48.949  13.8230  0.00  0.00     0.000 O
BRANCH 78 82
ATOM     79  C1  IDS B   5     -18.812  48.540  14.2450  0.00  0.00     0.000 C
ATOM     80  C2  IDS B   5     -19.532  47.693  13.2420  0.00  0.00     0.000 C
ATOM     81  C3  IDS B   5     -20.783  47.014  13.7930  0.00  0.00     0.000 C
ATOM     82  C4  IDS B   5     -21.637  47.949  14.6260  0.00  0.00     0.000 C
ATOM     83  C5  IDS B   5     -20.741  48.602  15.6300  0.00  0.00     0.000 C
ATOM     84  O5  IDS B   5     -19.737  49.340  14.9590  0.00  0.00     0.000 O
ATOM     85   O  IDS B   5     -20.368  45.959  14.6270  0.00  0.00     0.000 O
ATOM     87  HD  IDS B   5     -20.908  46.611  14.8110  0.00  0.00     0.000 HD
BRANCH 80 87
ATOM     87   O  IDS B   5     -19.938  48.501  12.2080  0.00  0.00     0.000 O
ATOM     88  @S  IDS B   5     -19.503  48.411  10.7440  0.00  0.00     0.000 S
ATOM     89   O  IDS B   5     -19.751  47.066  10.3670  0.00  0.00     0.000 OA
ATOM     90   O  IDS B   5     -20.298  49.366  10.0550  0.00  0.00     0.000 OA
ATOM     91   O  IDS B   5     -18.123  48.750  10.7220  0.00  0.00     0.000 OA
ENDBRANCH 80 87
BRANCH 83 92
ATOM     92 @CA  IDS B   5     -21.487  49.434  16.6670  0.00  0.00     0.000 C
ATOM     93   O  IDS B   5     -21.161  50.601  16.8980  0.00  0.00     0.000 OA
ATOM     94   O  IDS B   5     -22.431  48.949  17.3010  0.00  0.00     0.000 OA
ENDBRANCH 83 92
BRANCH 79 95
ATOM     95  O4  SGN B   6     -18.061  47.728  15.0850  0.00  0.00     0.000 O
BRANCH 95 99
ATOM     96  C1  SGN B   6     -14.815  48.325  17.5970  0.00  0.00     0.000 C
ATOM     97  C2  SGN B   6     -16.184  48.626  18.1950  0.00  0.00     0.000 C
ATOM     98  C3  SGN B   6     -17.203  47.845  17.3650  0.00  0.00     0.000 C
ATOM     99  C4  SGN B   6     -17.157  48.425  15.9230  0.00  0.00     0.000 C
ATOM    100  C5  SGN B   6     -15.710  48.200  15.3990  0.00  0.00     0.000 C
ATOM    101  O5  SGN B   6     -14.746  48.793  16.2640  0.00  0.00     0.000 O
BRANCH 97 104
ATOM    102   N  SGN B   6     -15.427  49.475  19.1210  0.00  0.00     0.000 N
ATOM    104  HD  SGN B   6     -15.038  48.981  19.7160  0.00  0.00     0.000 HD
ATOM    104 @NS  SGN B   6     -15.909  49.502  20.7080  0.00  0.00     0.000 S
ATOM    105   O  SGN B   6     -17.026  48.592  20.8430  0.00  0.00     0.000 OA
ATOM    106   O  SGN B   6     -14.771  49.089  21.4960  0.00  0.00     0.000 OA
ATOM    107   O  SGN B   6     -16.305  50.865  20.9820  0.00  0.00     0.000 OA
ENDBRANCH 97 104
BRANCH 100 108
ATOM    108   C  SGN B   6     -15.411  48.739  14.0050  0.00  0.00     0.000 C
ATOM    109   O  SGN B   6     -15.226  50.131  14.0730  0.00  0.00     0.000 O
ATOM    110  @S  SGN B   6     -14.905  51.076  12.8590  0.00  0.00     0.000 S
ATOM    111   O  SGN B   6     -15.716  50.604  11.7630  0.00  0.00     0.000 OA
ATOM    112   O  SGN B   6     -15.275  52.420  13.2750  0.00  0.00     0.000 OA
ATOM    113   O  SGN B   6     -13.489  50.928  12.6110  0.00  0.00     0.000 OA
ENDBRANCH 100 108
ENDBRANCH 95 99
ENDBRANCH 79 95
ENDBRANCH 78 82
ENDBRANCH 58 78
ENDBRANCH 57 61
ENDBRANCH 41 57
ENDBRANCH 40 44
ENDBRANCH 20 40
ENDBRANCH 19 23
ENDBRANCH 1 19
TORSDOF 22
ENDMDL
MODEL 14
REMARK VINA RESULT:      -3.6      4.645     12.671
ROOT
ATOM      1  C1  IDS B   1     -26.985  53.232  11.6940  0.00  0.00     0.000 C
ATOM      2  C2  IDS B   1     -26.278  54.494  11.2710  0.00  0.00     0.000 C
ATOM      3  C3  IDS B   1     -26.148  54.723   9.7460  0.00  0.00     0.000 C
ATOM      4  C4  IDS B   1     -27.300  54.055   8.9060  0.00  0.00     0.000 C
ATOM      5  C5  IDS B   1     -27.887  52.797   9.5920  0.00  0.00     0.000 C
ATOM      6  O5  IDS B   1     -28.168  53.070  10.9380  0.00  0.00     0.000 O
ATOM      7   O  IDS B   1     -24.873  54.226   9.3520  0.00  0.00     0.000 O
ATOM      9  HD  IDS B   1     -25.408  54.225   8.6710  0.00  0.00     0.000 HD
ATOM      9   O  IDS B   1     -28.336  55.001   8.7700  0.00  0.00     0.000 O
ATOM     11  HD  IDS B   1     -28.871  54.999   8.0890  0.00  0.00     0.000 HD
ENDROOT
BRANCH 2 11
ATOM     11   O  IDS B   1     -26.950  55.595  11.7770  0.00  0.00     0.000 O
ATOM     12  @S  IDS B   1     -26.335  56.619  12.7510  0.00  0.00     0.000 S
ATOM     13   O  IDS B   1     -25.309  55.866  13.4440  0.00  0.00     0.000 OA
ATOM     14   O  IDS B   1     -25.787  57.690  11.9380  0.00  0.00     0.000 OA
ATOM     15   O  IDS B   1     -27.423  57.059  13.6020  0.00  0.00     0.000 OA
ENDBRANCH 2 11
BRANCH 5 16
ATOM     16 @CA  IDS B   1     -29.108  52.166   8.9290  0.00  0.00     0.000 C
ATOM     17   O  IDS B   1     -29.000  51.243   8.1250  0.00  0.00     0.000 OA
ATOM     18   O  IDS B   1     -30.239  52.564   9.1980  0.00  0.00     0.000 OA
ENDBRANCH 5 16
BRANCH 1 19
ATOM     19  O4  SGN B   2     -26.103  52.148  11.4870  0.00  0.00     0.000 O
BRANCH 19 23
ATOM     20  C1  SGN B   2     -25.886  48.506  13.3440  0.00  0.00     0.000 C
ATOM     21  C2  SGN B   2     -26.633  48.610  12.0330  0.00  0.00     0.000 C
ATOM     22  C3  SGN B   2     -26.124  49.776  11.2650  0.00  0.00     0.000 C
ATOM     23  C4  SGN B   2     -26.467  50.974  12.1200  0.00  0.00     0.000 C
ATOM     24  C5  SGN B   2     -25.630  50.833  13.3430  0.00  0.00     0.000 C
ATOM     25  O5  SGN B   2     -26.043  49.725  14.0570  0.00  0.00     0.000 O
ATOM     26   O  SGN B   2     -26.778  49.847  10.0470  0.00  0.00     0.000 O
ATOM     28  HD  SGN B   2     -27.282  50.038   9.3690  0.00  0.00     0.000 HD
BRANCH 21 30
ATOM     28   N  SGN B   2     -27.420  47.547  12.5890  0.00  0.00     0.000 N
ATOM     30  HD  SGN B   2     -26.811  47.180  13.0840  0.00  0.00     0.000 HD
ATOM     30 @NS  SGN B   2     -27.526  46.177  11.7210  0.00  0.00     0.000 S
ATOM     31   O  SGN B   2     -26.651  46.264  10.6000  0.00  0.00     0.000 OA
ATOM     32   O  SGN B   2     -27.112  45.183  12.6230  0.00  0.00     0.000 OA
ATOM     33   O  SGN B   2     -28.875  46.074  11.3090  0.00  0.00     0.000 OA
ENDBRANCH 21 30
BRANCH 24 34
ATOM     34   C  SGN B   2     -25.673  51.985  14.2790  0.00  0.00     0.000 C
ATOM     35   O  SGN B   2     -25.638  51.479  15.5660  0.00  0.00     0.000 O
ATOM     36  @S  SGN B   2     -25.451  52.346  16.8050  0.00  0.00     0.000 S
ATOM     37   O  SGN B   2     -26.800  52.678  17.2160  0.00  0.00     0.000 OA
ATOM     38   O  SGN B   2     -24.733  51.544  17.7690  0.00  0.00     0.000 OA
ATOM     39   O  SGN B   2     -24.673  53.493  16.3550  0.00  0.00     0.000 OA
ENDBRANCH 24 34
BRANCH 20 40
ATOM     40  O4  IDS B   3     -24.540  48.221  13.1180  0.00  0.00     0.000 O
BRANCH 40 44
ATOM     41  C1  IDS B   3     -21.551  46.385  13.1140  0.00  0.00     0.000 C
ATOM     42  C2  IDS B   3     -22.891  45.686  12.8880  0.00  0.00     0.000 C
ATOM     43  C3  IDS B   3     -24.014  46.065  13.8720  0.00  0.00     0.000 C
ATOM     44  C4  IDS B   3     -23.978  47.546  14.1930  0.00  0.00     0.000 C
ATOM     45  C5  IDS B   3     -22.546  48.048  14.4410  0.00  0.00     0.000 C
ATOM     46  O5  IDS B   3     -21.745  47.771  13.3500  0.00  0.00     0.000 O
ATOM     47   O  IDS B   3     -23.844  45.347  15.0760  0.00  0.00     0.000 O
ATOM     49  HD  IDS B   3     -24.285  45.775  14.4660  0.00  0.00     0.000 HD
BRANCH 42 49
ATOM     49   O  IDS B   3     -23.345  46.001  11.6030  0.00  0.00     0.000 O
ATOM     50   O  IDS B   3     -21.927  44.380  10.6500  0.00  0.00     0.000 OA
ATOM     51   O  IDS B   3     -24.103  44.670   9.7640  0.00  0.00     0.000 OA
ATOM     52   O  IDS B   3     -22.470  46.352   9.4880  0.00  0.00     0.000 OA
ATOM     53  @S  IDS B   3     -22.940  45.306  10.3000  0.00  0.00     0.000 S
ENDBRANCH 42 49
BRANCH 45 54
ATOM     54 @CA  IDS B   3     -22.426  49.526  14.8050  0.00  0.00     0.000 C
ATOM     55   O  IDS B   3     -22.687  49.927  15.9070  0.00  0.00     0.000 OA
ATOM     56   O  IDS B   3     -22.048  50.327  14.0160  0.00  0.00     0.000 OA
ENDBRANCH 45 54
BRANCH 41 57
ATOM     57  O4  SGN B   4     -20.879  45.774  14.1660  0.00  0.00     0.000 O
BRANCH 57 61
ATOM     58  C1  SGN B   4     -17.190  47.560  13.7250  0.00  0.00     0.000 C
ATOM     59  C2  SGN B   4     -17.571  46.567  12.6410  0.00  0.00     0.000 C
ATOM     60  C3  SGN B   4     -19.070  46.286  12.7010  0.00  0.00     0.000 C
ATOM     61  C4  SGN B   4     -19.487  45.806  14.0950  0.00  0.00     0.000 C
ATOM     62  C5  SGN B   4     -18.978  46.824  15.1120  0.00  0.00     0.000 C
ATOM     63  O5  SGN B   4     -17.584  47.030  14.9800  0.00  0.00     0.000 O
ATOM     64   O  SGN B   4     -19.381  45.274  11.7650  0.00  0.00     0.000 O
ATOM     66  HD  SGN B   4     -19.731  44.549  12.0850  0.00  0.00     0.000 HD
BRANCH 59 68
ATOM     66   N  SGN B   4     -16.394  46.129  11.9190  0.00  0.00     0.000 N
ATOM     68  HD  SGN B   4     -16.597  46.361  12.7280  0.00  0.00     0.000 HD
ATOM     68 @NS  SGN B   4     -15.627  47.158  10.8990  0.00  0.00     0.000 S
ATOM     69   O  SGN B   4     -16.617  47.946  10.2260  0.00  0.00     0.000 OA
ATOM     70   O  SGN B   4     -14.781  47.976  11.7190  0.00  0.00     0.000 OA
ATOM     71   O  SGN B   4     -14.902  46.302  10.0100  0.00  0.00     0.000 OA
ENDBRANCH 59 68
BRANCH 62 72
ATOM     72   C  SGN B   4     -19.221  46.394  16.5510  0.00  0.00     0.000 C
ATOM     73   O  SGN B   4     -20.102  47.339  17.0810  0.00  0.00     0.000 O
ATOM     74  @S  SGN B   4     -21.175  47.116  18.1610  0.00  0.00     0.000 S
ATOM     75   O  SGN B   4     -20.516  46.630  19.3170  0.00  0.00     0.000 OA
ATOM     76   O  SGN B   4     -21.742  48.414  18.3660  0.00  0.00     0.000 OA
ATOM     77   O  SGN B   4     -22.069  46.145  17.6260  0.00  0.00     0.000 OA
ENDBRANCH 62 72
BRANCH 58 78
ATOM     78  O4  IDS B   5     -17.780  48.817  13.4640  0.00  0.00     0.000 O
BRANCH 78 82
ATOM     79  C1  IDS B   5     -18.671  52.111  12.8690  0.00  0.00     0.000 C
ATOM     80  C2  IDS B   5     -17.754  51.416  11.9100  0.00  0.00     0.000 C
ATOM     81  C3  IDS B   5     -16.576  50.714  12.5820  0.00  0.00     0.000 C
ATOM     82  C4  IDS B   5     -16.987  49.931  13.8120  0.00  0.00     0.000 C
ATOM     83  C5  IDS B   5     -17.794  50.845  14.6780  0.00  0.00     0.000 C
ATOM     84  O5  IDS B   5     -18.946  51.269  13.9740  0.00  0.00     0.000 O
ATOM     85   O  IDS B   5     -15.663  51.703  12.9900  0.00  0.00     0.000 O
ATOM     87  HD  IDS B   5     -16.024  51.074  13.4640  0.00  0.00     0.000 HD
BRANCH 80 87
ATOM     87   O  IDS B   5     -18.473  50.449  11.2520  0.00  0.00     0.000 O
ATOM     88  @S  IDS B   5     -19.609  50.669  10.2500  0.00  0.00     0.000 S
ATOM     89   O  IDS B   5     -19.077  51.553   9.2770  0.00  0.00     0.000 OA
ATOM     90   O  IDS B   5     -19.928  49.377   9.7520  0.00  0.00     0.000 OA
ATOM     91   O  IDS B   5     -20.682  51.235  10.9900  0.00  0.00     0.000 OA
ENDBRANCH 80 87
BRANCH 83 92
ATOM     92 @CA  IDS B   5     -18.125  50.260  16.0460  0.00  0.00     0.000 C
ATOM     93   O  IDS B   5     -17.249  49.740  16.7420  0.00  0.00     0.000 OA
ATOM     94   O  IDS B   5     -19.282  50.292  16.4820  0.00  0.00     0.000 OA
ENDBRANCH 83 92
BRANCH 79 95
ATOM     95  O4  SGN B   6     -18.107  53.319  13.2570  0.00  0.00     0.000 O
BRANCH 95 99
ATOM     96  C1  SGN B   6     -19.353  56.666  15.3680  0.00  0.00     0.000 C
ATOM     97  C2  SGN B   6     -19.307  55.361  16.1550  0.00  0.00     0.000 C
ATOM     98  C3  SGN B   6     -18.340  54.438  15.4120  0.00  0.00     0.000 C
ATOM     99  C4  SGN B   6     -18.965  54.151  14.0170  0.00  0.00     0.000 C
ATOM    100  C5  SGN B   6     -19.101  55.524  13.2990  0.00  0.00     0.000 C
ATOM    101  O5  SGN B   6     -19.870  56.441  14.0710  0.00  0.00     0.000 O
BRANCH 97 104
ATOM    102   N  SGN B   6     -19.553  56.343  17.2150  0.00  0.00     0.000 N
ATOM    104  HD  SGN B   6     -19.022  56.190  17.8820  0.00  0.00     0.000 HD
ATOM    104 @NS  SGN B   6     -20.133  55.780  18.6640  0.00  0.00     0.000 S
ATOM    105   O  SGN B   6     -20.242  54.341  18.5630  0.00  0.00     0.000 OA
ATOM    106   O  SGN B   6     -19.187  56.186  19.6770  0.00  0.00     0.000 OA
ATOM    107   O  SGN B   6     -21.430  56.394  18.8410  0.00  0.00     0.000 OA
ENDBRANCH 97 104
BRANCH 100 108
ATOM    108   C  SGN B   6     -19.743  55.497  11.9170  0.00  0.00     0.000 C
ATOM    109   O  SGN B   6     -20.999  54.871  11.9980  0.00  0.00     0.000 O
ATOM    110  @S  SGN B   6     -21.987  54.632  10.7990  0.00  0.00     0.000 S
ATOM    111   O  SGN B   6     -21.164  54.244   9.6790  0.00  0.00     0.000 OA
ATOM    112   O  SGN B   6     -22.886  53.566  11.2140  0.00  0.00     0.000 OA
ATOM    113   O  SGN B   6     -22.659  55.894  10.5890  0.00  0.00     0.000 OA
ENDBRANCH 100 108
ENDBRANCH 95 99
ENDBRANCH 79 95
ENDBRANCH 78 82
ENDBRANCH 58 78
ENDBRANCH 57 61
ENDBRANCH 41 57
ENDBRANCH 40 44
ENDBRANCH 20 40
ENDBRANCH 19 23
ENDBRANCH 1 19
TORSDOF 22
ENDMDL
MODEL 15
REMARK VINA RESULT:      -3.6      5.089     13.936
ROOT
ATOM      1  C1  IDS B   1     -22.866  53.405  11.7740  0.00  0.00     0.000 C
ATOM      2  C2  IDS B   1     -23.460  54.413  12.7230  0.00  0.00     0.000 C
ATOM      3  C3  IDS B   1     -22.823  55.823  12.7030  0.00  0.00     0.000 C
ATOM      4  C4  IDS B   1     -22.189  56.212  11.3160  0.00  0.00     0.000 C
ATOM      5  C5  IDS B   1     -21.700  54.980  10.5170  0.00  0.00     0.000 C
ATOM      6  O5  IDS B   1     -22.694  53.991  10.5000  0.00  0.00     0.000 O
ATOM      7   O  IDS B   1     -21.846  55.860  13.7400  0.00  0.00     0.000 O
ATOM      9  HD  IDS B   1     -21.651  56.451  13.1370  0.00  0.00     0.000 HD
ATOM      9   O  IDS B   1     -23.186  56.856  10.5540  0.00  0.00     0.000 O
ATOM     11  HD  IDS B   1     -22.990  57.447   9.9520  0.00  0.00     0.000 HD
ENDROOT
BRANCH 2 11
ATOM     11   O  IDS B   1     -24.805  54.587  12.4370  0.00  0.00     0.000 O
ATOM     12  @S  IDS B   1     -25.853  55.089  13.4490  0.00  0.00     0.000 S
ATOM     13   O  IDS B   1     -25.307  54.702  14.7340  0.00  0.00     0.000 OA
ATOM     14   O  IDS B   1     -25.931  56.530  13.2870  0.00  0.00     0.000 OA
ATOM     15   O  IDS B   1     -27.089  54.416  13.1040  0.00  0.00     0.000 OA
ENDBRANCH 2 11
BRANCH 5 16
ATOM     16 @CA  IDS B   1     -21.207  55.240   9.0960  0.00  0.00     0.000 C
ATOM     17   O  IDS B   1     -21.918  55.791   8.2580  0.00  0.00     0.000 OA
ATOM     18   O  IDS B   1     -20.072  54.912   8.7600  0.00  0.00     0.000 OA
ENDBRANCH 5 16
BRANCH 1 19
ATOM     19  O4  SGN B   2     -21.628  52.982  12.3050  0.00  0.00     0.000 O
BRANCH 19 23
ATOM     20  C1  SGN B   2     -19.745  49.347  12.3680  0.00  0.00     0.000 C
ATOM     21  C2  SGN B   2     -19.669  50.183  11.1090  0.00  0.00     0.000 C
ATOM     22  C3  SGN B   2     -19.871  51.615  11.4540  0.00  0.00     0.000 C
ATOM     23  C4  SGN B   2     -21.279  51.680  12.0010  0.00  0.00     0.000 C
ATOM     24  C5  SGN B   2     -21.241  50.905  13.2720  0.00  0.00     0.000 C
ATOM     25  O5  SGN B   2     -21.001  49.574  12.9920  0.00  0.00     0.000 O
ATOM     26   O  SGN B   2     -19.761  52.385  10.3100  0.00  0.00     0.000 O
ATOM     28  HD  SGN B   2     -19.884  52.878   9.6080  0.00  0.00     0.000 HD
BRANCH 21 30
ATOM     28   N  SGN B   2     -19.517  48.860  10.5790  0.00  0.00     0.000 N
ATOM     30  HD  SGN B   2     -19.015  48.527  11.2010  0.00  0.00     0.000 HD
ATOM     30 @NS  SGN B   2     -18.321  48.629   9.5040  0.00  0.00     0.000 S
ATOM     31   O  SGN B   2     -17.534  49.814   9.4170  0.00  0.00     0.000 OA
ATOM     32   O  SGN B   2     -17.587  47.563  10.0510  0.00  0.00     0.000 OA
ATOM     33   O  SGN B   2     -18.948  48.341   8.2700  0.00  0.00     0.000 OA
ENDBRANCH 21 30
BRANCH 24 34
ATOM     34   C  SGN B   2     -22.482  50.955  14.0850  0.00  0.00     0.000 C
ATOM     35   O  SGN B   2     -22.115  50.847  15.4140  0.00  0.00     0.000 O
ATOM     36  @S  SGN B   2     -23.080  51.070  16.5730  0.00  0.00     0.000 S
ATOM     37   O  SGN B   2     -23.616  49.752  16.8500  0.00  0.00     0.000 OA
ATOM     38   O  SGN B   2     -22.304  51.619  17.6600  0.00  0.00     0.000 OA
ATOM     39   O  SGN B   2     -24.069  52.014  16.0700  0.00  0.00     0.000 OA
ENDBRANCH 24 34
BRANCH 20 40
ATOM     40  O4  IDS B   3     -18.690  49.658  13.2260  0.00  0.00     0.000 O
BRANCH 40 44
ATOM     41  C1  IDS B   3     -15.687  48.951  14.8950  0.00  0.00     0.000 C
ATOM     42  C2  IDS B   3     -16.047  48.219  13.6040  0.00  0.00     0.000 C
ATOM     43  C3  IDS B   3     -17.485  47.671  13.5280  0.00  0.00     0.000 C
ATOM     44  C4  IDS B   3     -18.470  48.642  14.1470  0.00  0.00     0.000 C
ATOM     45  C5  IDS B   3     -17.949  49.232  15.4660  0.00  0.00     0.000 C
ATOM     46  O5  IDS B   3     -16.726  49.844  15.2690  0.00  0.00     0.000 O
ATOM     47   O  IDS B   3     -17.560  46.452  14.2380  0.00  0.00     0.000 O
ATOM     49  HD  IDS B   3     -17.790  47.034  13.6400  0.00  0.00     0.000 HD
BRANCH 42 49
ATOM     49   O  IDS B   3     -15.886  49.103  12.5320  0.00  0.00     0.000 O
ATOM     50   O  IDS B   3     -13.555  48.769  12.5420  0.00  0.00     0.000 OA
ATOM     51   O  IDS B   3     -14.680  48.970  10.4690  0.00  0.00     0.000 OA
ATOM     52   O  IDS B   3     -14.483  50.834  11.9030  0.00  0.00     0.000 OA
ATOM     53  @S  IDS B   3     -14.574  49.435  11.8170  0.00  0.00     0.000 S
ENDBRANCH 42 49
BRANCH 45 54
ATOM     54 @CA  IDS B   3     -18.899  50.196  16.1730  0.00  0.00     0.000 C
ATOM     55   O  IDS B   3     -19.612  49.835  17.0700  0.00  0.00     0.000 OA
ATOM     56   O  IDS B   3     -18.948  51.343  15.8730  0.00  0.00     0.000 OA
ENDBRANCH 45 54
BRANCH 41 57
ATOM     57  O4  SGN B   4     -15.421  48.026  15.8970  0.00  0.00     0.000 O
BRANCH 57 61
ATOM     58  C1  SGN B   4     -13.315  50.736  18.1810  0.00  0.00     0.000 C
ATOM     59  C2  SGN B   4     -12.487  49.915  17.2070  0.00  0.00     0.000 C
ATOM     60  C3  SGN B   4     -13.401  49.259  16.1760  0.00  0.00     0.000 C
ATOM     61  C4  SGN B   4     -14.490  48.421  16.8560  0.00  0.00     0.000 C
ATOM     62  C5  SGN B   4     -15.197  49.311  17.8740  0.00  0.00     0.000 C
ATOM     63  O5  SGN B   4     -14.276  49.885  18.7830  0.00  0.00     0.000 O
ATOM     64   O  SGN B   4     -12.625  48.409  15.3570  0.00  0.00     0.000 O
ATOM     66  HD  SGN B   4     -12.842  47.570  15.3580  0.00  0.00     0.000 HD
BRANCH 59 68
ATOM     66   N  SGN B   4     -11.084  49.935  17.5660  0.00  0.00     0.000 N
ATOM     68  HD  SGN B   4     -11.847  49.932  17.9750  0.00  0.00     0.000 HD
ATOM     68 @NS  SGN B   4     -10.212  51.313  17.3910  0.00  0.00     0.000 S
ATOM     69   O  SGN B   4     -10.646  51.971  16.1940  0.00  0.00     0.000 OA
ATOM     70   O  SGN B   4     -10.487  52.109  18.5520  0.00  0.00     0.000 OA
ATOM     71   O  SGN B   4      -8.854  50.867  17.3150  0.00  0.00     0.000 OA
ENDBRANCH 59 68
BRANCH 62 72
ATOM     72   C  SGN B   4     -16.221  48.556  18.7080  0.00  0.00     0.000 C
ATOM     73   O  SGN B   4     -15.566  47.406  19.1530  0.00  0.00     0.000 O
ATOM     74  @S  SGN B   4     -15.799  46.646  20.4710  0.00  0.00     0.000 S
ATOM     75   O  SGN B   4     -17.159  46.255  20.4990  0.00  0.00     0.000 OA
ATOM     76   O  SGN B   4     -14.913  45.524  20.3910  0.00  0.00     0.000 OA
ATOM     77   O  SGN B   4     -15.503  47.574  21.5110  0.00  0.00     0.000 OA
ENDBRANCH 62 72
BRANCH 58 78
ATOM     78  O4  IDS B   5     -13.911  51.830  17.5130  0.00  0.00     0.000 O
BRANCH 78 82
ATOM     79  C1  IDS B   5     -15.266  54.797  16.3490  0.00  0.00     0.000 C
ATOM     80  C2  IDS B   5     -13.781  54.604  16.3070  0.00  0.00     0.000 C
ATOM     81  C3  IDS B   5     -13.184  54.128  17.6280  0.00  0.00     0.000 C
ATOM     82  C4  IDS B   5     -13.992  53.018  18.2690  0.00  0.00     0.000 C
ATOM     83  C5  IDS B   5     -15.418  53.466  18.3110  0.00  0.00     0.000 C
ATOM     84  O5  IDS B   5     -15.881  53.696  16.9940  0.00  0.00     0.000 O
ATOM     85   O  IDS B   5     -13.179  55.220  18.5160  0.00  0.00     0.000 O
ATOM     87  HD  IDS B   5     -13.513  54.429  18.6350  0.00  0.00     0.000 HD
BRANCH 80 87
ATOM     87   O  IDS B   5     -13.500  53.641  15.3700  0.00  0.00     0.000 O
ATOM     88  @S  IDS B   5     -12.875  53.854  13.9890  0.00  0.00     0.000 S
ATOM     89   O  IDS B   5     -11.685  54.585  14.2320  0.00  0.00     0.000 OA
ATOM     90   O  IDS B   5     -12.663  52.550  13.4660  0.00  0.00     0.000 OA
ATOM     91   O  IDS B   5     -13.833  54.582  13.2330  0.00  0.00     0.000 OA
ENDBRANCH 80 87
BRANCH 83 92
ATOM     92 @CA  IDS B   5     -16.331  52.534  19.1000  0.00  0.00     0.000 C
ATOM     93   O  IDS B   5     -16.036  52.174  20.2420  0.00  0.00     0.000 OA
ATOM     94   O  IDS B   5     -17.384  52.117  18.6040  0.00  0.00     0.000 OA
ENDBRANCH 83 92
BRANCH 79 95
ATOM     95  O4  SGN B   6     -15.560  56.003  16.9740  0.00  0.00     0.000 O
BRANCH 95 99
ATOM     96  C1  SGN B   6     -18.853  58.519  17.1500  0.00  0.00     0.000 C
ATOM     97  C2  SGN B   6     -19.146  57.028  17.2800  0.00  0.00     0.000 C
ATOM     98  C3  SGN B   6     -17.846  56.367  17.7410  0.00  0.00     0.000 C
ATOM     99  C4  SGN B   6     -16.804  56.568  16.6040  0.00  0.00     0.000 C
ATOM    100  C5  SGN B   6     -16.627  58.104  16.4290  0.00  0.00     0.000 C
ATOM    101  O5  SGN B   6     -17.870  58.743  16.1590  0.00  0.00     0.000 O
BRANCH 97 104
ATOM    102   N  SGN B   6     -20.465  57.147  16.6520  0.00  0.00     0.000 N
ATOM    104  HD  SGN B   6     -20.952  57.705  17.1010  0.00  0.00     0.000 HD
ATOM    104 @NS  SGN B   6     -21.780  56.634  17.5250  0.00  0.00     0.000 S
ATOM    105   O  SGN B   6     -21.302  56.184  18.8150  0.00  0.00     0.000 OA
ATOM    106   O  SGN B   6     -22.671  57.765  17.6380  0.00  0.00     0.000 OA
ATOM    107   O  SGN B   6     -22.361  55.546  16.7710  0.00  0.00     0.000 OA
ENDBRANCH 97 104
BRANCH 100 108
ATOM    108   C  SGN B   6     -15.677  58.547  15.3220  0.00  0.00     0.000 C
ATOM    109   O  SGN B   6     -14.361  58.564  15.8160  0.00  0.00     0.000 O
ATOM    110  @S  SGN B   6     -13.079  58.968  15.0020  0.00  0.00     0.000 S
ATOM    111   O  SGN B   6     -13.462  60.104  14.1970  0.00  0.00     0.000 OA
ATOM    112   O  SGN B   6     -12.060  59.310  15.9820  0.00  0.00     0.000 OA
ATOM    113   O  SGN B   6     -12.738  57.810  14.2070  0.00  0.00     0.000 OA
ENDBRANCH 100 108
ENDBRANCH 95 99
ENDBRANCH 79 95
ENDBRANCH 78 82
ENDBRANCH 58 78
ENDBRANCH 57 61
ENDBRANCH 41 57
ENDBRANCH 40 44
ENDBRANCH 20 40
ENDBRANCH 19 23
ENDBRANCH 1 19
TORSDOF 22
ENDMDL
MODEL 16
REMARK VINA RESULT:      -3.5      4.881     10.884
ROOT
ATOM      1  C1  IDS B   1     -24.578  55.140  10.9440  0.00  0.00     0.000 C
ATOM      2  C2  IDS B   1     -25.213  54.571   9.7020  0.00  0.00     0.000 C
ATOM      3  C3  IDS B   1     -26.234  53.430   9.9210  0.00  0.00     0.000 C
ATOM      4  C4  IDS B   1     -26.967  53.495  11.3130  0.00  0.00     0.000 C
ATOM      5  C5  IDS B   1     -26.109  54.173  12.4080  0.00  0.00     0.000 C
ATOM      6  O5  IDS B   1     -25.570  55.373  11.9240  0.00  0.00     0.000 O
ATOM      7   O  IDS B   1     -25.532  52.200   9.7700  0.00  0.00     0.000 O
ATOM      9  HD  IDS B   1     -26.234  52.074  10.2610  0.00  0.00     0.000 HD
ATOM      9   O  IDS B   1     -28.140  54.260  11.1440  0.00  0.00     0.000 O
ATOM     11  HD  IDS B   1     -28.842  54.133  11.6350  0.00  0.00     0.000 HD
ENDROOT
BRANCH 2 11
ATOM     11   O  IDS B   1     -25.886  55.574   9.0210  0.00  0.00     0.000 O
ATOM     12  @S  IDS B   1     -25.847  55.768   7.4930  0.00  0.00     0.000 S
ATOM     13   O  IDS B   1     -24.577  55.189   7.1030  0.00  0.00     0.000 OA
ATOM     14   O  IDS B   1     -26.980  55.040   6.9520  0.00  0.00     0.000 OA
ATOM     15   O  IDS B   1     -25.939  57.197   7.2730  0.00  0.00     0.000 OA
ENDBRANCH 2 11
BRANCH 5 16
ATOM     16 @CA  IDS B   1     -26.788  54.418  13.7520  0.00  0.00     0.000 C
ATOM     17   O  IDS B   1     -26.276  55.131  14.6120  0.00  0.00     0.000 OA
ATOM     18   O  IDS B   1     -27.881  53.914  14.0000  0.00  0.00     0.000 OA
ENDBRANCH 5 16
BRANCH 1 19
ATOM     19  O4  SGN B   2     -23.620  54.213  11.4080  0.00  0.00     0.000 O
BRANCH 19 23
ATOM     20  C1  SGN B   2     -20.035  54.627  13.3400  0.00  0.00     0.000 C
ATOM     21  C2  SGN B   2     -21.306  54.957  14.0900  0.00  0.00     0.000 C
ATOM     22  C3  SGN B   2     -22.444  54.220  13.4810  0.00  0.00     0.000 C
ATOM     23  C4  SGN B   2     -22.547  54.771  12.0770  0.00  0.00     0.000 C
ATOM     24  C5  SGN B   2     -21.299  54.331  11.3930  0.00  0.00     0.000 C
ATOM     25  O5  SGN B   2     -20.213  54.958  11.9710  0.00  0.00     0.000 O
ATOM     26   O  SGN B   2     -23.601  54.488  14.1920  0.00  0.00     0.000 O
ATOM     28  HD  SGN B   2     -24.367  54.767  14.4840  0.00  0.00     0.000 HD
BRANCH 21 30
ATOM     28   N  SGN B   2     -20.789  54.574  15.3720  0.00  0.00     0.000 N
ATOM     30  HD  SGN B   2     -21.540  54.477  15.7920  0.00  0.00     0.000 HD
ATOM     30 @NS  SGN B   2     -20.386  55.772  16.3920  0.00  0.00     0.000 S
ATOM     31   O  SGN B   2     -20.787  57.019  15.8320  0.00  0.00     0.000 OA
ATOM     32   O  SGN B   2     -21.111  55.473  17.5570  0.00  0.00     0.000 OA
ATOM     33   O  SGN B   2     -18.981  55.709  16.5410  0.00  0.00     0.000 OA
ENDBRANCH 21 30
BRANCH 24 34
ATOM     34   C  SGN B   2     -21.237  54.620   9.9380  0.00  0.00     0.000 C
ATOM     35   O  SGN B   2     -20.806  55.926   9.7900  0.00  0.00     0.000 O
ATOM     36  @S  SGN B   2     -20.409  56.533   8.4490  0.00  0.00     0.000 S
ATOM     37   O  SGN B   2     -21.635  57.121   7.9470  0.00  0.00     0.000 OA
ATOM     38   O  SGN B   2     -19.372  57.501   8.7220  0.00  0.00     0.000 OA
ATOM     39   O  SGN B   2     -19.922  55.414   7.6530  0.00  0.00     0.000 OA
ENDBRANCH 24 34
BRANCH 20 40
ATOM     40  O4  IDS B   3     -19.709  53.280  13.4980  0.00  0.00     0.000 O
BRANCH 40 44
ATOM     41  C1  IDS B   3     -17.503  50.688  14.3450  0.00  0.00     0.000 C
ATOM     42  C2  IDS B   3     -17.292  52.098  14.8950  0.00  0.00     0.000 C
ATOM     43  C3  IDS B   3     -17.395  53.238  13.8640  0.00  0.00     0.000 C
ATOM     44  C4  IDS B   3     -18.509  52.973  12.8710  0.00  0.00     0.000 C
ATOM     45  C5  IDS B   3     -18.522  51.512  12.3950  0.00  0.00     0.000 C
ATOM     46  O5  IDS B   3     -18.625  50.656  13.4750  0.00  0.00     0.000 O
ATOM     47   O  IDS B   3     -16.180  53.336  13.1510  0.00  0.00     0.000 O
ATOM     49  HD  IDS B   3     -16.926  53.622  13.4860  0.00  0.00     0.000 HD
BRANCH 42 49
ATOM     49   O  IDS B   3     -18.258  52.341  15.8770  0.00  0.00     0.000 O
ATOM     50   O  IDS B   3     -17.091  51.006  17.4280  0.00  0.00     0.000 OA
ATOM     51   O  IDS B   3     -18.126  53.000  18.1740  0.00  0.00     0.000 OA
ATOM     52   O  IDS B   3     -19.438  51.163  17.4840  0.00  0.00     0.000 OA
ATOM     53  @S  IDS B   3     -18.223  51.852  17.3280  0.00  0.00     0.000 S
ENDBRANCH 42 49
BRANCH 45 54
ATOM     54 @CA  IDS B   3     -19.596  51.170  11.3650  0.00  0.00     0.000 C
ATOM     55   O  IDS B   3     -19.322  50.960  10.2140  0.00  0.00     0.000 OA
ATOM     56   O  IDS B   3     -20.738  51.077  11.6720  0.00  0.00     0.000 OA
ENDBRANCH 45 54
BRANCH 41 57
ATOM     57  O4  SGN B   4     -16.345  50.259  13.7070  0.00  0.00     0.000 O
BRANCH 57 61
ATOM     58  C1  SGN B   4     -17.235  46.303  14.4490  0.00  0.00     0.000 C
ATOM     59  C2  SGN B   4     -16.203  46.928  15.3730  0.00  0.00     0.000 C
ATOM     60  C3  SGN B   4     -16.256  48.448  15.2540  0.00  0.00     0.000 C
ATOM     61  C4  SGN B   4     -16.073  48.895  13.7990  0.00  0.00     0.000 C
ATOM     62  C5  SGN B   4     -17.093  48.143  12.9470  0.00  0.00     0.000 C
ATOM     63  O5  SGN B   4     -16.980  46.744  13.1260  0.00  0.00     0.000 O
ATOM     64   O  SGN B   4     -15.212  49.001  16.0290  0.00  0.00     0.000 O
ATOM     66  HD  SGN B   4     -14.629  49.480  15.6030  0.00  0.00     0.000 HD
BRANCH 59 68
ATOM     66   N  SGN B   4     -15.616  45.678  15.8130  0.00  0.00     0.000 N
ATOM     68  HD  SGN B   4     -16.178  45.942  15.2080  0.00  0.00     0.000 HD
ATOM     68 @NS  SGN B   4     -16.124  44.979  17.2070  0.00  0.00     0.000 S
ATOM     69   O  SGN B   4     -16.380  46.016  18.1630  0.00  0.00     0.000 OA
ATOM     70   O  SGN B   4     -17.323  44.263  16.8810  0.00  0.00     0.000 OA
ATOM     71   O  SGN B   4     -15.040  44.127  17.5910  0.00  0.00     0.000 OA
ENDBRANCH 59 68
BRANCH 62 72
ATOM     72   C  SGN B   4     -16.928  48.408  11.4580  0.00  0.00     0.000 C
ATOM     73   O  SGN B   4     -16.392  49.694  11.3630  0.00  0.00     0.000 O
ATOM     74  @S  SGN B   4     -15.440  50.234  10.2810  0.00  0.00     0.000 S
ATOM     75   O  SGN B   4     -16.090  50.079   9.0320  0.00  0.00     0.000 OA
ATOM     76   O  SGN B   4     -15.256  51.610  10.6310  0.00  0.00     0.000 OA
ATOM     77   O  SGN B   4     -14.267  49.430  10.3600  0.00  0.00     0.000 OA
ENDBRANCH 62 72
BRANCH 58 78
ATOM     78  O4  IDS B   5     -18.539  46.631  14.8830  0.00  0.00     0.000 O
BRANCH 78 82
ATOM     79  C1  IDS B   5     -21.868  46.901  15.8000  0.00  0.00     0.000 C
ATOM     80  C2  IDS B   5     -20.926  46.137  16.6790  0.00  0.00     0.000 C
ATOM     81  C3  IDS B   5     -20.086  45.104  15.9320  0.00  0.00     0.000 C
ATOM     82  C4  IDS B   5     -19.515  45.642  14.6360  0.00  0.00     0.000 C
ATOM     83  C5  IDS B   5     -20.642  46.258  13.8690  0.00  0.00     0.000 C
ATOM     84  O5  IDS B   5     -21.203  47.317  14.6220  0.00  0.00     0.000 O
ATOM     85   O  IDS B   5     -20.923  44.019  15.6130  0.00  0.00     0.000 O
ATOM     87  HD  IDS B   5     -20.421  44.487  15.0840  0.00  0.00     0.000 HD
BRANCH 80 87
ATOM     87   O  IDS B   5     -20.051  47.029  17.2480  0.00  0.00     0.000 O
ATOM     88  @S  IDS B   5     -19.912  47.362  18.7360  0.00  0.00     0.000 S
ATOM     89   O  IDS B   5     -19.736  46.110  19.3780  0.00  0.00     0.000 OA
ATOM     90   O  IDS B   5     -18.789  48.227  18.8260  0.00  0.00     0.000 OA
ATOM     91   O  IDS B   5     -21.119  48.014  19.1070  0.00  0.00     0.000 OA
ENDBRANCH 80 87
BRANCH 83 92
ATOM     92 @CA  IDS B   5     -20.263  46.679  12.4540  0.00  0.00     0.000 C
ATOM     93   O  IDS B   5     -20.428  47.840  12.0720  0.00  0.00     0.000 OA
ATOM     94   O  IDS B   5     -19.786  45.860  11.6600  0.00  0.00     0.000 OA
ENDBRANCH 83 92
BRANCH 79 95
ATOM     95  O4  SGN B   6     -22.983  46.119  15.5260  0.00  0.00     0.000 O
BRANCH 95 99
ATOM     96  C1  SGN B   6     -26.819  47.111  14.2960  0.00  0.00     0.000 C
ATOM     97  C2  SGN B   6     -25.900  46.545  13.2200  0.00  0.00     0.000 C
ATOM     98  C3  SGN B   6     -24.808  45.760  13.9480  0.00  0.00     0.000 C
ATOM     99  C4  SGN B   6     -24.001  46.782  14.7970  0.00  0.00     0.000 C
ATOM    100  C5  SGN B   6     -25.005  47.417  15.8010  0.00  0.00     0.000 C
ATOM    101  O5  SGN B   6     -26.110  48.011  15.1260  0.00  0.00     0.000 O
BRANCH 97 104
ATOM    102   N  SGN B   6     -27.109  46.905  12.4730  0.00  0.00     0.000 N
ATOM    104  HD  SGN B   6     -27.520  46.185  12.2210  0.00  0.00     0.000 HD
ATOM    104 @NS  SGN B   6     -27.181  46.472  10.8730  0.00  0.00     0.000 S
ATOM    105   O  SGN B   6     -25.964  45.757  10.5560  0.00  0.00     0.000 OA
ATOM    106   O  SGN B   6     -28.356  45.646  10.7170  0.00  0.00     0.000 OA
ATOM    107   O  SGN B   6     -27.272  47.709  10.1290  0.00  0.00     0.000 OA
ENDBRANCH 97 104
BRANCH 100 108
ATOM    108   C  SGN B   6     -24.444  48.498  16.7170  0.00  0.00     0.000 C
ATOM    109   O  SGN B   6     -24.366  49.713  16.0130  0.00  0.00     0.000 O
ATOM    110  @S  SGN B   6     -23.837  51.077  16.5870  0.00  0.00     0.000 S
ATOM    111   O  SGN B   6     -22.689  50.747  17.3970  0.00  0.00     0.000 OA
ATOM    112   O  SGN B   6     -23.481  51.895  15.4390  0.00  0.00     0.000 OA
ATOM    113   O  SGN B   6     -24.928  51.625  17.3610  0.00  0.00     0.000 OA
ENDBRANCH 100 108
ENDBRANCH 95 99
ENDBRANCH 79 95
ENDBRANCH 78 82
ENDBRANCH 58 78
ENDBRANCH 57 61
ENDBRANCH 41 57
ENDBRANCH 40 44
ENDBRANCH 20 40
ENDBRANCH 19 23
ENDBRANCH 1 19
TORSDOF 22
ENDMDL
MODEL 17
REMARK VINA RESULT:      -3.4      4.559     10.438
ROOT
ATOM      1  C1  IDS B   1     -18.173  56.734  15.0030  0.00  0.00     0.000 C
ATOM      2  C2  IDS B   1     -16.765  56.287  15.3000  0.00  0.00     0.000 C
ATOM      3  C3  IDS B   1     -15.961  55.733  14.1000  0.00  0.00     0.000 C
ATOM      4  C4  IDS B   1     -16.403  56.329  12.7120  0.00  0.00     0.000 C
ATOM      5  C5  IDS B   1     -17.891  56.756  12.6920  0.00  0.00     0.000 C
ATOM      6  O5  IDS B   1     -18.188  57.521  13.8290  0.00  0.00     0.000 O
ATOM      7   O  IDS B   1     -16.101  54.316  14.1160  0.00  0.00     0.000 O
ATOM      9  HD  IDS B   1     -15.913  54.579  13.3120  0.00  0.00     0.000 HD
ATOM      9   O  IDS B   1     -15.619  57.476  12.4680  0.00  0.00     0.000 O
ATOM     11  HD  IDS B   1     -15.432  57.739  11.6650  0.00  0.00     0.000 HD
ENDROOT
BRANCH 2 11
ATOM     11   O  IDS B   1     -16.035  57.351  15.8040  0.00  0.00     0.000 O
ATOM     12  @S  IDS B   1     -14.832  57.209  16.7580  0.00  0.00     0.000 S
ATOM     13   O  IDS B   1     -15.079  55.956  17.4420  0.00  0.00     0.000 OA
ATOM     14   O  IDS B   1     -13.644  57.164  15.9250  0.00  0.00     0.000 OA
ATOM     15   O  IDS B   1     -14.872  58.373  17.6200  0.00  0.00     0.000 OA
ENDBRANCH 2 11
BRANCH 5 16
ATOM     16 @CA  IDS B   1     -18.375  57.483  11.4410  0.00  0.00     0.000 C
ATOM     17   O  IDS B   1     -18.957  58.563  11.5080  0.00  0.00     0.000 OA
ATOM     18   O  IDS B   1     -18.180  57.004  10.3270  0.00  0.00     0.000 OA
ENDBRANCH 5 16
BRANCH 1 19
ATOM     19  O4  SGN B   2     -18.974  55.581  14.8480  0.00  0.00     0.000 O
BRANCH 19 23
ATOM     20  C1  SGN B   2     -22.941  54.816  15.5040  0.00  0.00     0.000 C
ATOM     21  C2  SGN B   2     -22.564  55.927  14.5490  0.00  0.00     0.000 C
ATOM     22  C3  SGN B   2     -21.202  55.673  14.0090  0.00  0.00     0.000 C
ATOM     23  C4  SGN B   2     -20.296  55.738  15.2170  0.00  0.00     0.000 C
ATOM     24  C5  SGN B   2     -20.680  54.568  16.0570  0.00  0.00     0.000 C
ATOM     25  O5  SGN B   2     -21.964  54.746  16.5330  0.00  0.00     0.000 O
ATOM     26   O  SGN B   2     -20.872  56.666  13.1040  0.00  0.00     0.000 O
ATOM     28  HD  SGN B   2     -20.554  57.352  12.6810  0.00  0.00     0.000 HD
BRANCH 21 30
ATOM     28   N  SGN B   2     -23.757  56.589  14.9890  0.00  0.00     0.000 N
ATOM     30  HD  SGN B   2     -24.201  55.895  15.2550  0.00  0.00     0.000 HD
ATOM     30 @NS  SGN B   2     -24.898  56.876  13.8680  0.00  0.00     0.000 S
ATOM     31   O  SGN B   2     -24.523  56.246  12.6470  0.00  0.00     0.000 OA
ATOM     32   O  SGN B   2     -26.052  56.292  14.4150  0.00  0.00     0.000 OA
ATOM     33   O  SGN B   2     -24.962  58.281  13.7190  0.00  0.00     0.000 OA
ENDBRANCH 21 30
BRANCH 24 34
ATOM     34   C  SGN B   2     -19.815  54.323  17.2380  0.00  0.00     0.000 C
ATOM     35   O  SGN B   2     -18.860  53.392  16.8690  0.00  0.00     0.000 O
ATOM     36  @S  SGN B   2     -17.658  53.034  17.7350  0.00  0.00     0.000 S
ATOM     37   O  SGN B   2     -18.114  51.913  18.5330  0.00  0.00     0.000 OA
ATOM     38   O  SGN B   2     -16.580  52.701  16.8320  0.00  0.00     0.000 OA
ATOM     39   O  SGN B   2     -17.375  54.234  18.5110  0.00  0.00     0.000 OA
ENDBRANCH 24 34
BRANCH 20 40
ATOM     40  O4  IDS B   3     -23.049  53.603  14.8250  0.00  0.00     0.000 O
BRANCH 40 44
ATOM     41  C1  IDS B   3     -24.410  50.592  13.6480  0.00  0.00     0.000 C
ATOM     42  C2  IDS B   3     -25.261  51.859  13.7010  0.00  0.00     0.000 C
ATOM     43  C3  IDS B   3     -25.185  52.658  15.0170  0.00  0.00     0.000 C
ATOM     44  C4  IDS B   3     -23.771  52.673  15.5610  0.00  0.00     0.000 C
ATOM     45  C5  IDS B   3     -23.101  51.293  15.4680  0.00  0.00     0.000 C
ATOM     46  O5  IDS B   3     -23.110  50.842  14.1620  0.00  0.00     0.000 O
ATOM     47   O  IDS B   3     -26.024  52.055  15.9800  0.00  0.00     0.000 O
ATOM     49  HD  IDS B   3     -25.588  52.703  15.6050  0.00  0.00     0.000 HD
BRANCH 42 49
ATOM     49   O  IDS B   3     -24.849  52.715  12.6750  0.00  0.00     0.000 O
ATOM     50   O  IDS B   3     -26.038  51.455  11.0790  0.00  0.00     0.000 OA
ATOM     51   O  IDS B   3     -26.013  53.815  10.8970  0.00  0.00     0.000 OA
ATOM     52   O  IDS B   3     -24.046  52.570  10.5080  0.00  0.00     0.000 OA
ATOM     53  @S  IDS B   3     -25.265  52.636  11.2040  0.00  0.00     0.000 S
ENDBRANCH 42 49
BRANCH 45 54
ATOM     54 @CA  IDS B   3     -21.683  51.215  16.0290  0.00  0.00     0.000 C
ATOM     55   O  IDS B   3     -21.475  51.139  17.2090  0.00  0.00     0.000 OA
ATOM     56   O  IDS B   3     -20.737  51.204  15.3130  0.00  0.00     0.000 OA
ENDBRANCH 45 54
BRANCH 41 57
ATOM     57  O4  SGN B   4     -25.049  49.571  14.3410  0.00  0.00     0.000 O
BRANCH 57 61
ATOM     58  C1  SGN B   4     -22.594  46.513  13.0700  0.00  0.00     0.000 C
ATOM     59  C2  SGN B   4     -23.640  46.975  12.0690  0.00  0.00     0.000 C
ATOM     60  C3  SGN B   4     -24.200  48.329  12.4930  0.00  0.00     0.000 C
ATOM     61  C4  SGN B   4     -24.753  48.275  13.9210  0.00  0.00     0.000 C
ATOM     62  C5  SGN B   4     -23.659  47.715  14.8260  0.00  0.00     0.000 C
ATOM     63  O5  SGN B   4     -23.192  46.466  14.3550  0.00  0.00     0.000 O
ATOM     64   O  SGN B   4     -25.251  48.681  11.6170  0.00  0.00     0.000 O
ATOM     66  HD  SGN B   4     -26.029  48.798  11.9770  0.00  0.00     0.000 HD
BRANCH 59 68
ATOM     66   N  SGN B   4     -23.872  46.017  11.0070  0.00  0.00     0.000 N
ATOM     68  HD  SGN B   4     -23.722  46.001  11.8600  0.00  0.00     0.000 HD
ATOM     68 @NS  SGN B   4     -22.686  45.690   9.9230  0.00  0.00     0.000 S
ATOM     69   O  SGN B   4     -21.990  46.910   9.6360  0.00  0.00     0.000 OA
ATOM     70   O  SGN B   4     -21.822  44.733  10.5530  0.00  0.00     0.000 OA
ATOM     71   O  SGN B   4     -23.379  45.168   8.7850  0.00  0.00     0.000 OA
ENDBRANCH 59 68
BRANCH 62 72
ATOM     72   C  SGN B   4     -24.131  47.494  16.2560  0.00  0.00     0.000 C
ATOM     73   O  SGN B   4     -25.088  46.480  16.1810  0.00  0.00     0.000 O
ATOM     74  @S  SGN B   4     -25.412  45.418  17.2470  0.00  0.00     0.000 S
ATOM     75   O  SGN B   4     -25.784  46.105  18.4280  0.00  0.00     0.000 OA
ATOM     76   O  SGN B   4     -26.501  44.677  16.6840  0.00  0.00     0.000 OA
ATOM     77   O  SGN B   4     -24.211  44.676  17.4330  0.00  0.00     0.000 OA
ENDBRANCH 62 72
BRANCH 58 78
ATOM     78  O4  IDS B   5     -21.471  47.371  13.0320  0.00  0.00     0.000 O
BRANCH 78 82
ATOM     79  C1  IDS B   5     -18.416  49.002  13.0180  0.00  0.00     0.000 C
ATOM     80  C2  IDS B   5     -18.896  48.334  11.7650  0.00  0.00     0.000 C
ATOM     81  C3  IDS B   5     -19.356  46.894  11.9720  0.00  0.00     0.000 C
ATOM     82  C4  IDS B   5     -20.226  46.729  13.2020  0.00  0.00     0.000 C
ATOM     83  C5  IDS B   5     -19.509  47.366  14.3490  0.00  0.00     0.000 C
ATOM     84  O5  IDS B   5     -19.315  48.742  14.0810  0.00  0.00     0.000 O
ATOM     85   O  IDS B   5     -18.210  46.098  12.1510  0.00  0.00     0.000 O
ATOM     87  HD  IDS B   5     -18.906  46.162  12.6610  0.00  0.00     0.000 HD
BRANCH 80 87
ATOM     87   O  IDS B   5     -19.976  49.036  11.2910  0.00  0.00     0.000 O
ATOM     88  @S  IDS B   5     -20.044  49.866  10.0070  0.00  0.00     0.000 S
ATOM     89   O  IDS B   5     -19.608  48.991   8.9790  0.00  0.00     0.000 OA
ATOM     90   O  IDS B   5     -21.400  50.273   9.8910  0.00  0.00     0.000 OA
ATOM     91   O  IDS B   5     -19.171  50.970  10.2060  0.00  0.00     0.000 OA
ENDBRANCH 80 87
BRANCH 83 92
ATOM     92 @CA  IDS B   5     -20.171  47.119  15.7000  0.00  0.00     0.000 C
ATOM     93   O  IDS B   5     -20.406  45.974  16.0910  0.00  0.00     0.000 OA
ATOM     94   O  IDS B   5     -20.490  48.067  16.4270  0.00  0.00     0.000 OA
ENDBRANCH 83 92
BRANCH 79 95
ATOM     95  O4  SGN B   6     -17.125  48.578  13.3050  0.00  0.00     0.000 O
BRANCH 95 99
ATOM     96  C1  SGN B   6     -14.002  49.899  15.6940  0.00  0.00     0.000 C
ATOM     97  C2  SGN B   6     -15.246  49.417  16.4310  0.00  0.00     0.000 C
ATOM     98  C3  SGN B   6     -15.996  48.498  15.4650  0.00  0.00     0.000 C
ATOM     99  C4  SGN B   6     -16.444  49.372  14.2590  0.00  0.00     0.000 C
ATOM    100  C5  SGN B   6     -15.147  49.935  13.6120  0.00  0.00     0.000 C
ATOM    101  O5  SGN B   6     -14.365  50.658  14.5580  0.00  0.00     0.000 O
BRANCH 97 104
ATOM    102   N  SGN B   6     -14.330  49.778  17.5160  0.00  0.00     0.000 N
ATOM    104  HD  SGN B   6     -14.177  49.083  18.0110  0.00  0.00     0.000 HD
ATOM    104 @NS  SGN B   6     -14.905  49.684  19.0700  0.00  0.00     0.000 S
ATOM    105   O  SGN B   6     -16.267  49.202  19.0060  0.00  0.00     0.000 OA
ATOM    106   O  SGN B   6     -14.037  48.774  19.7810  0.00  0.00     0.000 OA
ATOM    107   O  SGN B   6     -14.848  51.029  19.5990  0.00  0.00     0.000 OA
ENDBRANCH 97 104
BRANCH 100 108
ATOM    108   C  SGN B   6     -15.342  50.872  12.4250  0.00  0.00     0.000 C
ATOM    109   O  SGN B   6     -14.399  51.912  12.4920  0.00  0.00     0.000 O
ATOM    110  @S  SGN B   6     -14.260  53.095  11.4660  0.00  0.00     0.000 S
ATOM    111   O  SGN B   6     -15.607  53.490  11.1320  0.00  0.00     0.000 OA
ATOM    112   O  SGN B   6     -13.533  54.151  12.1520  0.00  0.00     0.000 OA
ATOM    113   O  SGN B   6     -13.540  52.550  10.3360  0.00  0.00     0.000 OA
ENDBRANCH 100 108
ENDBRANCH 95 99
ENDBRANCH 79 95
ENDBRANCH 78 82
ENDBRANCH 58 78
ENDBRANCH 57 61
ENDBRANCH 41 57
ENDBRANCH 40 44
ENDBRANCH 20 40
ENDBRANCH 19 23
ENDBRANCH 1 19
TORSDOF 22
ENDMDL
MODEL 18
REMARK VINA RESULT:      -3.4      3.894      7.111
ROOT
ATOM      1  C1  IDS B   1     -16.642  49.431  16.6900  0.00  0.00     0.000 C
ATOM      2  C2  IDS B   1     -16.437  47.946  16.8340  0.00  0.00     0.000 C
ATOM      3  C3  IDS B   1     -15.980  47.195  15.5610  0.00  0.00     0.000 C
ATOM      4  C4  IDS B   1     -15.151  48.088  14.5630  0.00  0.00     0.000 C
ATOM      5  C5  IDS B   1     -15.526  49.587  14.6520  0.00  0.00     0.000 C
ATOM      6  O5  IDS B   1     -15.552  49.999  15.9920  0.00  0.00     0.000 O
ATOM      7   O  IDS B   1     -17.148  46.676  14.9340  0.00  0.00     0.000 O
ATOM      9  HD  IDS B   1     -16.520  46.767  14.3450  0.00  0.00     0.000 HD
ATOM      9   O  IDS B   1     -13.789  47.960  14.9030  0.00  0.00     0.000 O
ATOM     11  HD  IDS B   1     -13.161  48.051  14.3140  0.00  0.00     0.000 HD
ENDROOT
BRANCH 2 11
ATOM     11   O  IDS B   1     -15.476  47.700  17.8010  0.00  0.00     0.000 O
ATOM     12  @S  IDS B   1     -15.784  47.249  19.2420  0.00  0.00     0.000 S
ATOM     13   O  IDS B   1     -17.116  47.765  19.4890  0.00  0.00     0.000 OA
ATOM     14   O  IDS B   1     -15.740  45.798  19.2430  0.00  0.00     0.000 OA
ATOM     15   O  IDS B   1     -14.755  47.844  20.0720  0.00  0.00     0.000 OA
ENDBRANCH 2 11
BRANCH 5 16
ATOM     16 @CA  IDS B   1     -14.675  50.553  13.8330  0.00  0.00     0.000 C
ATOM     17   O  IDS B   1     -14.856  51.767  13.8750  0.00  0.00     0.000 OA
ATOM     18   O  IDS B   1     -13.770  50.132  13.1160  0.00  0.00     0.000 OA
ENDBRANCH 5 16
BRANCH 1 19
ATOM     19  O4  SGN B   2     -17.851  49.640  15.9900  0.00  0.00     0.000 O
BRANCH 19 23
ATOM     20  C1  SGN B   2     -20.956  52.262  16.4770  0.00  0.00     0.000 C
ATOM     21  C2  SGN B   2     -19.571  52.815  16.2250  0.00  0.00     0.000 C
ATOM     22  C3  SGN B   2     -18.752  51.795  15.5200  0.00  0.00     0.000 C
ATOM     23  C4  SGN B   2     -18.651  50.646  16.4970  0.00  0.00     0.000 C
ATOM     24  C5  SGN B   2     -20.036  50.114  16.6200  0.00  0.00     0.000 C
ATOM     25  O5  SGN B   2     -20.840  51.061  17.2260  0.00  0.00     0.000 O
ATOM     26   O  SGN B   2     -17.497  52.314  15.2520  0.00  0.00     0.000 O
ATOM     28  HD  SGN B   2     -16.658  52.525  15.2300  0.00  0.00     0.000 HD
BRANCH 21 30
ATOM     28   N  SGN B   2     -19.904  53.931  17.0620  0.00  0.00     0.000 N
ATOM     30  HD  SGN B   2     -20.767  53.871  17.0210  0.00  0.00     0.000 HD
ATOM     30 @NS  SGN B   2     -19.981  55.389  16.3500  0.00  0.00     0.000 S
ATOM     31   O  SGN B   2     -19.840  55.231  14.9420  0.00  0.00     0.000 OA
ATOM     32   O  SGN B   2     -21.261  55.856  16.6910  0.00  0.00     0.000 OA
ATOM     33   O  SGN B   2     -18.916  56.148  16.8880  0.00  0.00     0.000 OA
ENDBRANCH 21 30
BRANCH 24 34
ATOM     34   C  SGN B   2     -20.170  48.867  17.4140  0.00  0.00     0.000 C
ATOM     35   O  SGN B   2     -20.309  47.818  16.5230  0.00  0.00     0.000 O
ATOM     36  @S  SGN B   2     -20.260  46.352  16.9370  0.00  0.00     0.000 S
ATOM     37   O  SGN B   2     -21.642  46.009  17.2030  0.00  0.00     0.000 OA
ATOM     38   O  SGN B   2     -19.687  45.626  15.8270  0.00  0.00     0.000 OA
ATOM     39   O  SGN B   2     -19.406  46.317  18.1170  0.00  0.00     0.000 OA
ENDBRANCH 24 34
BRANCH 20 40
ATOM     40  O4  IDS B   3     -21.622  52.045  15.2710  0.00  0.00     0.000 O
BRANCH 40 44
ATOM     41  C1  IDS B   3     -24.333  52.427  13.0770  0.00  0.00     0.000 C
ATOM     42  C2  IDS B   3     -24.081  53.449  14.1840  0.00  0.00     0.000 C
ATOM     43  C3  IDS B   3     -23.796  52.862  15.5810  0.00  0.00     0.000 C
ATOM     44  C4  IDS B   3     -22.928  51.624  15.4820  0.00  0.00     0.000 C
ATOM     45  C5  IDS B   3     -23.374  50.695  14.3420  0.00  0.00     0.000 C
ATOM     46  O5  IDS B   3     -23.378  51.378  13.1410  0.00  0.00     0.000 O
ATOM     47   O  IDS B   3     -25.016  52.501  16.1940  0.00  0.00     0.000 O
ATOM     49  HD  IDS B   3     -24.185  52.744  16.1680  0.00  0.00     0.000 HD
BRANCH 42 49
ATOM     49   O  IDS B   3     -22.972  54.225  13.8300  0.00  0.00     0.000 O
ATOM     50   O  IDS B   3     -24.294  55.554  12.4040  0.00  0.00     0.000 OA
ATOM     51   O  IDS B   3     -22.602  56.585  13.6980  0.00  0.00     0.000 OA
ATOM     52   O  IDS B   3     -22.029  55.139  11.9230  0.00  0.00     0.000 OA
ATOM     53  @S  IDS B   3     -22.976  55.451  12.9130  0.00  0.00     0.000 S
ENDBRANCH 42 49
BRANCH 45 54
ATOM     54 @CA  IDS B   3     -22.570  49.405  14.1970  0.00  0.00     0.000 C
ATOM     55   O  IDS B   3     -23.002  48.348  14.5690  0.00  0.00     0.000 OA
ATOM     56   O  IDS B   3     -21.497  49.401  13.6910  0.00  0.00     0.000 OA
ENDBRANCH 45 54
BRANCH 41 57
ATOM     57  O4  SGN B   4     -25.632  51.946  13.1750  0.00  0.00     0.000 O
BRANCH 57 61
ATOM     58  C1  SGN B   4     -28.472  50.107  10.8190  0.00  0.00     0.000 C
ATOM     59  C2  SGN B   4     -27.456  49.180  11.4660  0.00  0.00     0.000 C
ATOM     60  C3  SGN B   4     -26.732  49.913  12.5920  0.00  0.00     0.000 C
ATOM     61  C4  SGN B   4     -26.089  51.209  12.0830  0.00  0.00     0.000 C
ATOM     62  C5  SGN B   4     -27.169  52.020  11.3730  0.00  0.00     0.000 C
ATOM     63  O5  SGN B   4     -27.795  51.262  10.3540  0.00  0.00     0.000 O
ATOM     64   O  SGN B   4     -25.713  49.075  13.0980  0.00  0.00     0.000 O
ATOM     66  HD  SGN B   4     -24.904  49.377  13.0440  0.00  0.00     0.000 HD
BRANCH 59 68
ATOM     66   N  SGN B   4     -28.253  48.073  11.9540  0.00  0.00     0.000 N
ATOM     68  HD  SGN B   4     -27.432  48.344  12.0130  0.00  0.00     0.000 HD
ATOM     68 @NS  SGN B   4     -28.684  46.861  10.9370  0.00  0.00     0.000 S
ATOM     69   O  SGN B   4     -28.977  47.433   9.6560  0.00  0.00     0.000 OA
ATOM     70   O  SGN B   4     -27.557  45.978  10.8670  0.00  0.00     0.000 OA
ATOM     71   O  SGN B   4     -29.832  46.271  11.5550  0.00  0.00     0.000 OA
ENDBRANCH 59 68
BRANCH 62 72
ATOM     72   C  SGN B   4     -26.626  53.277  10.7110  0.00  0.00     0.000 C
ATOM     73   O  SGN B   4     -26.524  52.970   9.3520  0.00  0.00     0.000 O
ATOM     74  @S  SGN B   4     -26.683  53.932   8.1620  0.00  0.00     0.000 S
ATOM     75   O  SGN B   4     -25.720  54.959   8.3170  0.00  0.00     0.000 OA
ATOM     76   O  SGN B   4     -26.425  53.115   7.0140  0.00  0.00     0.000 OA
ATOM     77   O  SGN B   4     -28.009  54.444   8.2500  0.00  0.00     0.000 OA
ENDBRANCH 62 72
BRANCH 58 78
ATOM     78  O4  IDS B   5     -29.500  50.420  11.7360  0.00  0.00     0.000 O
BRANCH 78 82
ATOM     79  C1  IDS B   5     -32.427  50.801  13.5500  0.00  0.00     0.000 C
ATOM     80  C2  IDS B   5     -32.080  49.454  12.9930  0.00  0.00     0.000 C
ATOM     81  C3  IDS B   5     -31.710  49.475  11.5130  0.00  0.00     0.000 C
ATOM     82  C4  IDS B   5     -30.774  50.613  11.1600  0.00  0.00     0.000 C
ATOM     83  C5  IDS B   5     -31.366  51.870  11.7120  0.00  0.00     0.000 C
ATOM     84  O5  IDS B   5     -31.480  51.762  13.1180  0.00  0.00     0.000 O
ATOM     85   O  IDS B   5     -32.895  49.653  10.7760  0.00  0.00     0.000 O
ATOM     87  HD  IDS B   5     -32.164  50.115  10.7400  0.00  0.00     0.000 HD
BRANCH 80 87
ATOM     87   O  IDS B   5     -30.986  48.977  13.6730  0.00  0.00     0.000 O
ATOM     88  @S  IDS B   5     -30.980  47.930  14.7900  0.00  0.00     0.000 S
ATOM     89   O  IDS B   5     -31.680  46.818  14.2560  0.00  0.00     0.000 OA
ATOM     90   O  IDS B   5     -29.609  47.680  15.0650  0.00  0.00     0.000 OA
ATOM     91   O  IDS B   5     -31.644  48.530  15.8930  0.00  0.00     0.000 OA
ENDBRANCH 80 87
BRANCH 83 92
ATOM     92 @CA  IDS B   5     -30.635  53.135  11.2780  0.00  0.00     0.000 C
ATOM     93   O  IDS B   5     -30.527  53.428  10.0850  0.00  0.00     0.000 OA
ATOM     94   O  IDS B   5     -30.130  53.890  12.1180  0.00  0.00     0.000 OA
ENDBRANCH 83 92
BRANCH 79 95
ATOM     95  O4  SGN B   6     -33.722  51.136  13.1790  0.00  0.00     0.000 O
BRANCH 95 99
ATOM     96  C1  SGN B   6     -36.468  54.020  14.3430  0.00  0.00     0.000 C
ATOM     97  C2  SGN B   6     -35.024  54.488  14.2160  0.00  0.00     0.000 C
ATOM     98  C3  SGN B   6     -34.324  53.498  13.2840  0.00  0.00     0.000 C
ATOM     99  C4  SGN B   6     -34.333  52.116  13.9990  0.00  0.00     0.000 C
ATOM    100  C5  SGN B   6     -35.826  51.735  14.2120  0.00  0.00     0.000 C
ATOM    101  O5  SGN B   6     -36.520  52.741  14.9440  0.00  0.00     0.000 O
BRANCH 97 104
ATOM    102   N  SGN B   6     -35.335  55.525  15.2040  0.00  0.00     0.000 N
ATOM    104  HD  SGN B   6     -35.878  56.104  14.8570  0.00  0.00     0.000 HD
ATOM    104 @NS  SGN B   6     -34.843  57.075  14.8740  0.00  0.00     0.000 S
ATOM    105   O  SGN B   6     -34.200  57.064  13.5780  0.00  0.00     0.000 OA
ATOM    106   O  SGN B   6     -36.028  57.900  14.8890  0.00  0.00     0.000 OA
ATOM    107   O  SGN B   6     -33.910  57.429  15.9200  0.00  0.00     0.000 OA
ENDBRANCH 97 104
BRANCH 100 108
ATOM    108   C  SGN B   6     -36.085  50.426  14.9480  0.00  0.00     0.000 C
ATOM    109   O  SGN B   6     -35.395  50.435  16.1730  0.00  0.00     0.000 O
ATOM    110  @S  SGN B   6     -35.388  49.275  17.2340  0.00  0.00     0.000 S
ATOM    111   O  SGN B   6     -35.309  48.048  16.4780  0.00  0.00     0.000 OA
ATOM    112   O  SGN B   6     -34.213  49.484  18.0640  0.00  0.00     0.000 OA
ATOM    113   O  SGN B   6     -36.630  49.404  17.9620  0.00  0.00     0.000 OA
ENDBRANCH 100 108
ENDBRANCH 95 99
ENDBRANCH 79 95
ENDBRANCH 78 82
ENDBRANCH 58 78
ENDBRANCH 57 61
ENDBRANCH 41 57
ENDBRANCH 40 44
ENDBRANCH 20 40
ENDBRANCH 19 23
ENDBRANCH 1 19
TORSDOF 22
ENDMDL
MODEL 19
REMARK VINA RESULT:      -3.3      5.160     13.944
ROOT
ATOM      1  C1  IDS B   1     -23.168  53.130  13.5180  0.00  0.00     0.000 C
ATOM      2  C2  IDS B   1     -23.299  54.106  14.6580  0.00  0.00     0.000 C
ATOM      3  C3  IDS B   1     -22.615  55.480  14.4600  0.00  0.00     0.000 C
ATOM      4  C4  IDS B   1     -22.509  55.922  12.9530  0.00  0.00     0.000 C
ATOM      5  C5  IDS B   1     -22.436  54.719  11.9810  0.00  0.00     0.000 C
ATOM      6  O5  IDS B   1     -23.435  53.786  12.2940  0.00  0.00     0.000 O
ATOM      7   O  IDS B   1     -21.327  55.401  15.0610  0.00  0.00     0.000 O
ATOM      9  HD  IDS B   1     -21.325  56.018  14.4530  0.00  0.00     0.000 HD
ATOM      9   O  IDS B   1     -23.667  56.663  12.6410  0.00  0.00     0.000 O
ATOM     11  HD  IDS B   1     -23.666  57.280  12.0330  0.00  0.00     0.000 HD
ENDROOT
BRANCH 2 11
ATOM     11   O  IDS B   1     -24.639  54.366  14.8980  0.00  0.00     0.000 O
ATOM     12  @S  IDS B   1     -25.388  53.962  16.1830  0.00  0.00     0.000 S
ATOM     13   O  IDS B   1     -24.653  52.811  16.6660  0.00  0.00     0.000 OA
ATOM     14   O  IDS B   1     -25.305  55.096  17.0860  0.00  0.00     0.000 OA
ATOM     15   O  IDS B   1     -26.747  53.668  15.7720  0.00  0.00     0.000 OA
ENDBRANCH 2 11
BRANCH 5 16
ATOM     16 @CA  IDS B   1     -22.483  55.043  10.4910  0.00  0.00     0.000 C
ATOM     17   O  IDS B   1     -22.194  56.158  10.0640  0.00  0.00     0.000 OA
ATOM     18   O  IDS B   1     -22.802  54.181   9.6750  0.00  0.00     0.000 OA
ENDBRANCH 5 16
BRANCH 1 19
ATOM     19  O4  SGN B   2     -21.855  52.611  13.5350  0.00  0.00     0.000 O
BRANCH 19 23
ATOM     20  C1  SGN B   2     -20.547  48.807  12.7740  0.00  0.00     0.000 C
ATOM     21  C2  SGN B   2     -20.372  49.863  11.7050  0.00  0.00     0.000 C
ATOM     22  C3  SGN B   2     -20.347  51.208  12.3380  0.00  0.00     0.000 C
ATOM     23  C4  SGN B   2     -21.716  51.362  12.9590  0.00  0.00     0.000 C
ATOM     24  C5  SGN B   2     -21.767  50.347  14.0480  0.00  0.00     0.000 C
ATOM     25  O5  SGN B   2     -21.739  49.081  13.4960  0.00  0.00     0.000 O
ATOM     26   O  SGN B   2     -20.146  52.172  11.3650  0.00  0.00     0.000 O
ATOM     28  HD  SGN B   2     -20.208  52.810  10.7830  0.00  0.00     0.000 HD
BRANCH 21 30
ATOM     28   N  SGN B   2     -19.489  48.794  11.3410  0.00  0.00     0.000 N
ATOM     30  HD  SGN B   2     -18.745  49.237  11.3330  0.00  0.00     0.000 HD
ATOM     30 @NS  SGN B   2     -19.313  48.492   9.7540  0.00  0.00     0.000 S
ATOM     31   O  SGN B   2     -19.992  49.498   9.0070  0.00  0.00     0.000 OA
ATOM     32   O  SGN B   2     -17.923  48.555   9.5580  0.00  0.00     0.000 OA
ATOM     33   O  SGN B   2     -19.882  47.218   9.5280  0.00  0.00     0.000 OA
ENDBRANCH 21 30
BRANCH 24 34
ATOM     34   C  SGN B   2     -22.968  50.408  14.9180  0.00  0.00     0.000 C
ATOM     35   O  SGN B   2     -23.703  49.258  14.6970  0.00  0.00     0.000 O
ATOM     36  @S  SGN B   2     -24.894  48.844  15.5540  0.00  0.00     0.000 S
ATOM     37   O  SGN B   2     -26.037  49.430  14.8820  0.00  0.00     0.000 OA
ATOM     38   O  SGN B   2     -24.911  47.399  15.5710  0.00  0.00     0.000 OA
ATOM     39   O  SGN B   2     -24.632  49.408  16.8710  0.00  0.00     0.000 OA
ENDBRANCH 24 34
BRANCH 20 40
ATOM     40  O4  IDS B   3     -19.438  48.780  13.6190  0.00  0.00     0.000 O
BRANCH 40 44
ATOM     41  C1  IDS B   3     -17.031  47.232  15.6480  0.00  0.00     0.000 C
ATOM     42  C2  IDS B   3     -17.691  46.464  14.5040  0.00  0.00     0.000 C
ATOM     43  C3  IDS B   3     -19.225  46.587  14.4170  0.00  0.00     0.000 C
ATOM     44  C4  IDS B   3     -19.676  47.997  14.7410  0.00  0.00     0.000 C
ATOM     45  C5  IDS B   3     -18.932  48.577  15.9550  0.00  0.00     0.000 C
ATOM     46  O5  IDS B   3     -17.568  48.543  15.7430  0.00  0.00     0.000 O
ATOM     47   O  IDS B   3     -19.818  45.707  15.3490  0.00  0.00     0.000 O
ATOM     49  HD  IDS B   3     -19.777  46.186  14.6280  0.00  0.00     0.000 HD
BRANCH 42 49
ATOM     49   O  IDS B   3     -17.171  46.935  13.2940  0.00  0.00     0.000 O
ATOM     50   O  IDS B   3     -15.401  45.384  13.3940  0.00  0.00     0.000 OA
ATOM     51   O  IDS B   3     -16.414  45.842  11.3040  0.00  0.00     0.000 OA
ATOM     52   O  IDS B   3     -15.115  47.490  12.3850  0.00  0.00     0.000 OA
ATOM     53  @S  IDS B   3     -15.956  46.376  12.5490  0.00  0.00     0.000 S
ENDBRANCH 42 49
BRANCH 45 54
ATOM     54 @CA  IDS B   3     -19.354  49.985  16.3690  0.00  0.00     0.000 C
ATOM     55   O  IDS B   3     -18.844  50.962  15.8910  0.00  0.00     0.000 OA
ATOM     56   O  IDS B   3     -20.219  50.162  17.1620  0.00  0.00     0.000 OA
ENDBRANCH 45 54
BRANCH 41 57
ATOM     57  O4  SGN B   4     -17.186  46.526  16.8340  0.00  0.00     0.000 O
BRANCH 57 61
ATOM     58  C1  SGN B   4     -14.266  48.601  18.8750  0.00  0.00     0.000 C
ATOM     59  C2  SGN B   4     -13.774  47.442  18.0240  0.00  0.00     0.000 C
ATOM     60  C3  SGN B   4     -14.864  47.022  17.0420  0.00  0.00     0.000 C
ATOM     61  C4  SGN B   4     -16.169  46.688  17.7740  0.00  0.00     0.000 C
ATOM     62  C5  SGN B   4     -16.523  47.875  18.6650  0.00  0.00     0.000 C
ATOM     63  O5  SGN B   4     -15.455  48.201  19.5350  0.00  0.00     0.000 O
ATOM     64   O  SGN B   4     -14.431  45.871  16.3460  0.00  0.00     0.000 O
ATOM     66  HD  SGN B   4     -14.922  45.163  16.4320  0.00  0.00     0.000 HD
BRANCH 59 68
ATOM     66   N  SGN B   4     -12.448  47.031  18.4360  0.00  0.00     0.000 N
ATOM     68  HD  SGN B   4     -13.165  47.341  18.8100  0.00  0.00     0.000 HD
ATOM     68 @NS  SGN B   4     -11.157  47.994  18.1270  0.00  0.00     0.000 S
ATOM     69   O  SGN B   4     -11.343  48.596  16.8390  0.00  0.00     0.000 OA
ATOM     70   O  SGN B   4     -11.139  48.983  19.1660  0.00  0.00     0.000 OA
ATOM     71   O  SGN B   4     -10.035  47.107  18.1660  0.00  0.00     0.000 OA
ENDBRANCH 59 68
BRANCH 62 72
ATOM     72   C  SGN B   4     -17.737  47.613  19.5430  0.00  0.00     0.000 C
ATOM     73   O  SGN B   4     -18.793  47.373  18.6610  0.00  0.00     0.000 O
ATOM     74  @S  SGN B   4     -20.008  46.456  18.8830  0.00  0.00     0.000 S
ATOM     75   O  SGN B   4     -20.677  46.914  20.0440  0.00  0.00     0.000 OA
ATOM     76   O  SGN B   4     -20.796  46.625  17.6990  0.00  0.00     0.000 OA
ATOM     77   O  SGN B   4     -19.478  45.148  19.0720  0.00  0.00     0.000 OA
ENDBRANCH 62 72
BRANCH 58 78
ATOM     78  O4  IDS B   5     -14.457  49.748  18.0720  0.00  0.00     0.000 O
BRANCH 78 82
ATOM     79  C1  IDS B   5     -14.788  52.851  16.5700  0.00  0.00     0.000 C
ATOM     80  C2  IDS B   5     -13.446  52.185  16.5870  0.00  0.00     0.000 C
ATOM     81  C3  IDS B   5     -13.023  51.686  17.9660  0.00  0.00     0.000 C
ATOM     82  C4  IDS B   5     -14.141  50.972  18.6980  0.00  0.00     0.000 C
ATOM     83  C5  IDS B   5     -15.345  51.859  18.6560  0.00  0.00     0.000 C
ATOM     84  O5  IDS B   5     -15.720  52.083  17.3100  0.00  0.00     0.000 O
ATOM     85   O  IDS B   5     -12.656  52.806  18.7340  0.00  0.00     0.000 O
ATOM     87  HD  IDS B   5     -13.227  52.184  18.9260  0.00  0.00     0.000 HD
BRANCH 80 87
ATOM     87   O  IDS B   5     -13.500  51.088  15.7630  0.00  0.00     0.000 O
ATOM     88  @S  IDS B   5     -12.783  50.904  14.4240  0.00  0.00     0.000 S
ATOM     89   O  IDS B   5     -11.418  51.176  14.6980  0.00  0.00     0.000 OA
ATOM     90   O  IDS B   5     -13.045  49.563  14.0350  0.00  0.00     0.000 OA
ATOM     91   O  IDS B   5     -13.369  51.843  13.5320  0.00  0.00     0.000 OA
ENDBRANCH 80 87
BRANCH 83 92
ATOM     92 @CA  IDS B   5     -16.503  51.362  19.5130  0.00  0.00     0.000 C
ATOM     93   O  IDS B   5     -16.346  51.120  20.7120  0.00  0.00     0.000 OA
ATOM     94   O  IDS B   5     -17.623  51.188  19.0180  0.00  0.00     0.000 OA
ENDBRANCH 83 92
BRANCH 79 95
ATOM     95  O4  SGN B   6     -14.669  54.146  17.0570  0.00  0.00     0.000 O
BRANCH 95 99
ATOM     96  C1  SGN B   6     -17.127  57.482  17.2500  0.00  0.00     0.000 C
ATOM     97  C2  SGN B   6     -17.766  56.160  17.6560  0.00  0.00     0.000 C
ATOM     98  C3  SGN B   6     -16.621  55.223  18.0450  0.00  0.00     0.000 C
ATOM     99  C4  SGN B   6     -15.770  54.987  16.7650  0.00  0.00     0.000 C
ATOM    100  C5  SGN B   6     -15.236  56.380  16.3230  0.00  0.00     0.000 C
ATOM    101  O5  SGN B   6     -16.301  57.303  16.1160  0.00  0.00     0.000 O
BRANCH 97 104
ATOM    102   N  SGN B   6     -18.778  57.103  18.1410  0.00  0.00     0.000 N
ATOM    104  HD  SGN B   6     -19.082  56.835  18.9070  0.00  0.00     0.000 HD
ATOM    104 @NS  SGN B   6     -20.333  56.547  18.3020  0.00  0.00     0.000 S
ATOM    105   O  SGN B   6     -20.339  55.148  17.9340  0.00  0.00     0.000 OA
ATOM    106   O  SGN B   6     -20.707  56.750  19.6820  0.00  0.00     0.000 OA
ATOM    107   O  SGN B   6     -21.134  57.334  17.3910  0.00  0.00     0.000 OA
ENDBRANCH 97 104
BRANCH 100 108
ATOM    108   C  SGN B   6     -14.406  56.404  15.0450  0.00  0.00     0.000 C
ATOM    109   O  SGN B   6     -15.215  56.810  13.9700  0.00  0.00     0.000 O
ATOM    110  @S  SGN B   6     -14.752  56.962  12.4760  0.00  0.00     0.000 S
ATOM    111   O  SGN B   6     -13.879  55.842  12.2160  0.00  0.00     0.000 OA
ATOM    112   O  SGN B   6     -15.958  56.916  11.6650  0.00  0.00     0.000 OA
ATOM    113   O  SGN B   6     -14.067  58.233  12.4050  0.00  0.00     0.000 OA
ENDBRANCH 100 108
ENDBRANCH 95 99
ENDBRANCH 79 95
ENDBRANCH 78 82
ENDBRANCH 58 78
ENDBRANCH 57 61
ENDBRANCH 41 57
ENDBRANCH 40 44
ENDBRANCH 20 40
ENDBRANCH 19 23
ENDBRANCH 1 19
TORSDOF 22
ENDMDL
MODEL 20
REMARK VINA RESULT:      -3.0      4.895     10.941
ROOT
ATOM      1  C1  IDS B   1     -17.320  57.559  14.0220  0.00  0.00     0.000 C
ATOM      2  C2  IDS B   1     -15.872  57.151  14.0910  0.00  0.00     0.000 C
ATOM      3  C3  IDS B   1     -15.187  56.840  12.7390  0.00  0.00     0.000 C
ATOM      4  C4  IDS B   1     -15.806  57.622  11.5210  0.00  0.00     0.000 C
ATOM      5  C5  IDS B   1     -17.303  57.961  11.7290  0.00  0.00     0.000 C
ATOM      6  O5  IDS B   1     -17.498  58.519  13.0000  0.00  0.00     0.000 O
ATOM      7   O  IDS B   1     -15.269  55.433  12.5380  0.00  0.00     0.000 O
ATOM      9  HD  IDS B   1     -15.184  55.830  11.7730  0.00  0.00     0.000 HD
ATOM      9   O  IDS B   1     -15.100  58.835  11.3870  0.00  0.00     0.000 O
ATOM     11  HD  IDS B   1     -15.016  59.232  10.6220  0.00  0.00     0.000 HD
ENDROOT
BRANCH 2 11
ATOM     11   O  IDS B   1     -15.130  58.162  14.6830  0.00  0.00     0.000 O
ATOM     12  @S  IDS B   1     -13.608  58.106  14.9140  0.00  0.00     0.000 S
ATOM     13   O  IDS B   1     -13.324  56.688  15.0050  0.00  0.00     0.000 OA
ATOM     14   O  IDS B   1     -12.988  58.725  13.7560  0.00  0.00     0.000 OA
ATOM     15   O  IDS B   1     -13.367  58.839  16.1410  0.00  0.00     0.000 OA
ENDBRANCH 2 11
BRANCH 5 16
ATOM     16 @CA  IDS B   1     -17.954  58.848  10.6710  0.00  0.00     0.000 C
ATOM     17   O  IDS B   1     -17.910  60.074  10.7430  0.00  0.00     0.000 OA
ATOM     18   O  IDS B   1     -18.530  58.349   9.7080  0.00  0.00     0.000 OA
ENDBRANCH 5 16
BRANCH 1 19
ATOM     19  O4  SGN B   2     -18.088  56.402  13.7660  0.00  0.00     0.000 O
BRANCH 19 23
ATOM     20  C1  SGN B   2     -21.792  55.231  15.0570  0.00  0.00     0.000 C
ATOM     21  C2  SGN B   2     -21.696  56.129  13.8430  0.00  0.00     0.000 C
ATOM     22  C3  SGN B   2     -20.362  55.961  13.2090  0.00  0.00     0.000 C
ATOM     23  C4  SGN B   2     -19.381  56.442  14.2520  0.00  0.00     0.000 C
ATOM     24  C5  SGN B   2     -19.482  55.460  15.3670  0.00  0.00     0.000 C
ATOM     25  O5  SGN B   2     -20.732  55.551  15.9480  0.00  0.00     0.000 O
ATOM     26   O  SGN B   2     -20.288  56.751  12.0750  0.00  0.00     0.000 O
ATOM     28  HD  SGN B   2     -20.131  57.357  11.4760  0.00  0.00     0.000 HD
BRANCH 21 30
ATOM     28   N  SGN B   2     -23.002  56.433  14.3500  0.00  0.00     0.000 N
ATOM     30  HD  SGN B   2     -23.255  55.630  14.5490  0.00  0.00     0.000 HD
ATOM     30 @NS  SGN B   2     -24.208  56.532  13.2650  0.00  0.00     0.000 S
ATOM     31   O  SGN B   2     -23.724  56.130  11.9870  0.00  0.00     0.000 OA
ATOM     32   O  SGN B   2     -25.170  55.635  13.7580  0.00  0.00     0.000 OA
ATOM     33   O  SGN B   2     -24.618  57.886  13.2520  0.00  0.00     0.000 OA
ENDBRANCH 21 30
BRANCH 24 34
ATOM     34   C  SGN B   2     -18.490  55.630  16.4580  0.00  0.00     0.000 C
ATOM     35   O  SGN B   2     -17.543  54.631  16.3210  0.00  0.00     0.000 O
ATOM     36  @S  SGN B   2     -16.244  54.589  17.1160  0.00  0.00     0.000 S
ATOM     37   O  SGN B   2     -16.570  53.805  18.2910  0.00  0.00     0.000 OA
ATOM     38   O  SGN B   2     -15.255  53.971  16.2640  0.00  0.00     0.000 OA
ATOM     39   O  SGN B   2     -15.929  55.982  17.4050  0.00  0.00     0.000 OA
ENDBRANCH 24 34
BRANCH 20 40
ATOM     40  O4  IDS B   3     -21.746  53.890  14.6770  0.00  0.00     0.000 O
BRANCH 40 44
ATOM     41  C1  IDS B   3     -22.843  50.598  14.1590  0.00  0.00     0.000 C
ATOM     42  C2  IDS B   3     -23.790  51.776  13.9350  0.00  0.00     0.000 C
ATOM     43  C3  IDS B   3     -23.807  52.839  15.0500  0.00  0.00     0.000 C
ATOM     44  C4  IDS B   3     -22.412  53.082  15.5900  0.00  0.00     0.000 C
ATOM     45  C5  IDS B   3     -21.636  51.772  15.7980  0.00  0.00     0.000 C
ATOM     46  O5  IDS B   3     -21.579  51.055  14.6190  0.00  0.00     0.000 O
ATOM     47   O  IDS B   3     -24.621  52.388  16.1130  0.00  0.00     0.000 O
ATOM     49  HD  IDS B   3     -24.227  52.975  15.6130  0.00  0.00     0.000 HD
BRANCH 42 49
ATOM     49   O  IDS B   3     -23.419  52.425  12.7530  0.00  0.00     0.000 O
ATOM     50   O  IDS B   3     -24.673  50.903  11.4650  0.00  0.00     0.000 OA
ATOM     51   O  IDS B   3     -24.654  53.189  10.8510  0.00  0.00     0.000 OA
ATOM     52   O  IDS B   3     -22.706  51.877  10.6190  0.00  0.00     0.000 OA
ATOM     53  @S  IDS B   3     -23.895  52.080  11.3390  0.00  0.00     0.000 S
ENDBRANCH 42 49
BRANCH 45 54
ATOM     54 @CA  IDS B   3     -20.230  51.929  16.3730  0.00  0.00     0.000 C
ATOM     55   O  IDS B   3     -19.251  51.748  15.7020  0.00  0.00     0.000 OA
ATOM     56   O  IDS B   3     -20.058  52.256  17.5000  0.00  0.00     0.000 OA
ENDBRANCH 45 54
BRANCH 41 57
ATOM     57  O4  SGN B   4     -23.419  49.700  15.0500  0.00  0.00     0.000 O
BRANCH 57 61
ATOM     58  C1  SGN B   4     -20.878  46.570  14.1880  0.00  0.00     0.000 C
ATOM     59  C2  SGN B   4     -22.029  46.767  13.2160  0.00  0.00     0.000 C
ATOM     60  C3  SGN B   4     -22.641  48.151  13.4140  0.00  0.00     0.000 C
ATOM     61  C4  SGN B   4     -23.073  48.362  14.8690  0.00  0.00     0.000 C
ATOM     62  C5  SGN B   4     -21.875  48.051  15.7620  0.00  0.00     0.000 C
ATOM     63  O5  SGN B   4     -21.365  46.755  15.5060  0.00  0.00     0.000 O
ATOM     64   O  SGN B   4     -23.780  48.267  12.5860  0.00  0.00     0.000 O
ATOM     66  HD  SGN B   4     -24.533  48.416  12.9870  0.00  0.00     0.000 HD
BRANCH 59 68
ATOM     66   N  SGN B   4     -22.248  45.563  12.4420  0.00  0.00     0.000 N
ATOM     68  HD  SGN B   4     -21.994  45.769  13.2440  0.00  0.00     0.000 HD
ATOM     68 @NS  SGN B   4     -21.169  45.121  11.2890  0.00  0.00     0.000 S
ATOM     69   O  SGN B   4     -20.699  46.307  10.6350  0.00  0.00     0.000 OA
ATOM     70   O  SGN B   4     -20.104  44.448  11.9750  0.00  0.00     0.000 OA
ATOM     71   O  SGN B   4     -21.913  44.266  10.4150  0.00  0.00     0.000 OA
ENDBRANCH 59 68
BRANCH 62 72
ATOM     72   C  SGN B   4     -22.213  48.102  17.2450  0.00  0.00     0.000 C
ATOM     73   O  SGN B   4     -21.531  47.029  17.8220  0.00  0.00     0.000 O
ATOM     74  @S  SGN B   4     -20.954  46.943  19.2450  0.00  0.00     0.000 S
ATOM     75   O  SGN B   4     -22.026  47.146  20.1490  0.00  0.00     0.000 OA
ATOM     76   O  SGN B   4     -20.418  45.618  19.3280  0.00  0.00     0.000 OA
ATOM     77   O  SGN B   4     -19.991  47.989  19.3380  0.00  0.00     0.000 OA
ENDBRANCH 62 72
BRANCH 58 78
ATOM     78  O4  IDS B   5     -19.821  47.455  13.8780  0.00  0.00     0.000 O
BRANCH 78 82
ATOM     79  C1  IDS B   5     -16.891  49.204  13.2850  0.00  0.00     0.000 C
ATOM     80  C2  IDS B   5     -17.422  48.285  12.2280  0.00  0.00     0.000 C
ATOM     81  C3  IDS B   5     -17.768  46.890  12.7410  0.00  0.00     0.000 C
ATOM     82  C4  IDS B   5     -18.526  46.921  14.0530  0.00  0.00     0.000 C
ATOM     83  C5  IDS B   5     -17.765  47.802  14.9920  0.00  0.00     0.000 C
ATOM     84  O5  IDS B   5     -17.684  49.109  14.4540  0.00  0.00     0.000 O
ATOM     85   O  IDS B   5     -16.561  46.201  12.9630  0.00  0.00     0.000 O
ATOM     87  HD  IDS B   5     -17.218  46.328  13.5120  0.00  0.00     0.000 HD
BRANCH 80 87
ATOM     87   O  IDS B   5     -18.580  48.827  11.7290  0.00  0.00     0.000 O
ATOM     88  @S  IDS B   5     -18.783  49.455  10.3480  0.00  0.00     0.000 S
ATOM     89   O  IDS B   5     -18.329  48.476   9.4280  0.00  0.00     0.000 OA
ATOM     90   O  IDS B   5     -20.173  49.737  10.2620  0.00  0.00     0.000 OA
ATOM     91   O  IDS B   5     -17.997  50.639  10.3350  0.00  0.00     0.000 OA
ENDBRANCH 80 87
BRANCH 83 92
ATOM     92 @CA  IDS B   5     -18.302  47.787  16.4180  0.00  0.00     0.000 C
ATOM     93   O  IDS B   5     -18.742  48.813  16.9420  0.00  0.00     0.000 OA
ATOM     94   O  IDS B   5     -18.302  46.742  17.0790  0.00  0.00     0.000 OA
ENDBRANCH 83 92
BRANCH 79 95
ATOM     95  O4  SGN B   6     -15.556  48.908  13.5290  0.00  0.00     0.000 O
BRANCH 95 99
ATOM     96  C1  SGN B   6     -12.510  50.592  15.7870  0.00  0.00     0.000 C
ATOM     97  C2  SGN B   6     -13.863  50.471  16.4780  0.00  0.00     0.000 C
ATOM     98  C3  SGN B   6     -14.635  49.378  15.7390  0.00  0.00     0.000 C
ATOM     99  C4  SGN B   6     -14.867  49.886  14.2870  0.00  0.00     0.000 C
ATOM    100  C5  SGN B   6     -13.459  50.106  13.6630  0.00  0.00     0.000 C
ATOM    101  O5  SGN B   6     -12.678  51.005  14.4450  0.00  0.00     0.000 O
BRANCH 97 104
ATOM    102   N  SGN B   6     -14.491  51.329  17.4880  0.00  0.00     0.000 N
ATOM    104  HD  SGN B   6     -13.977  52.007  17.6540  0.00  0.00     0.000 HD
ATOM    104 @NS  SGN B   6     -13.719  51.487  18.9490  0.00  0.00     0.000 S
ATOM    105   O  SGN B   6     -12.497  50.716  18.8850  0.00  0.00     0.000 OA
ATOM    106   O  SGN B   6     -13.467  52.897  19.1360  0.00  0.00     0.000 OA
ATOM    107   O  SGN B   6     -14.626  50.952  19.9400  0.00  0.00     0.000 OA
ENDBRANCH 97 104
BRANCH 100 108
ATOM    108   C  SGN B   6     -13.435  50.657  12.2420  0.00  0.00     0.000 C
ATOM    109   O  SGN B   6     -14.409  51.662  12.1140  0.00  0.00     0.000 O
ATOM    110  @S  SGN B   6     -14.718  52.483  10.8100  0.00  0.00     0.000 S
ATOM    111   O  SGN B   6     -14.645  51.539   9.7210  0.00  0.00     0.000 OA
ATOM    112   O  SGN B   6     -16.057  53.026  10.9740  0.00  0.00     0.000 OA
ATOM    113   O  SGN B   6     -13.696  53.502  10.7370  0.00  0.00     0.000 OA
ENDBRANCH 100 108
ENDBRANCH 95 99
ENDBRANCH 79 95
ENDBRANCH 78 82
ENDBRANCH 58 78
ENDBRANCH 57 61
ENDBRANCH 41 57
ENDBRANCH 40 44
ENDBRANCH 20 40
ENDBRANCH 19 23
ENDBRANCH 1 19
TORSDOF 22
ENDMDL
MODEL 21
REMARK VINA RESULT:      -2.8      4.821     13.742
ROOT
ATOM      1  C1  IDS B   1     -23.175  53.072  12.1590  0.00  0.00     0.000 C
ATOM      2  C2  IDS B   1     -23.688  54.090  13.1430  0.00  0.00     0.000 C
ATOM      3  C3  IDS B   1     -23.276  55.558  12.8810  0.00  0.00     0.000 C
ATOM      4  C4  IDS B   1     -23.016  55.881  11.3620  0.00  0.00     0.000 C
ATOM      5  C5  IDS B   1     -22.541  54.644  10.5620  0.00  0.00     0.000 C
ATOM      6  O5  IDS B   1     -23.365  53.544  10.8400  0.00  0.00     0.000 O
ATOM      7   O  IDS B   1     -22.116  55.818  13.6650  0.00  0.00     0.000 O
ATOM      9  HD  IDS B   1     -22.140  56.365  12.9940  0.00  0.00     0.000 HD
ATOM      9   O  IDS B   1     -24.234  56.319  10.8020  0.00  0.00     0.000 O
ATOM     11  HD  IDS B   1     -24.258  56.866  10.1310  0.00  0.00     0.000 HD
ENDROOT
BRANCH 2 11
ATOM     11   O  IDS B   1     -25.074  54.068  13.1580  0.00  0.00     0.000 O
ATOM     12  @S  IDS B   1     -25.938  54.411  14.3860  0.00  0.00     0.000 S
ATOM     13   O  IDS B   1     -25.079  54.104  15.5120  0.00  0.00     0.000 OA
ATOM     14   O  IDS B   1     -26.251  55.826  14.2930  0.00  0.00     0.000 OA
ATOM     15   O  IDS B   1     -27.113  53.568  14.2910  0.00  0.00     0.000 OA
ENDBRANCH 2 11
BRANCH 5 16
ATOM     16 @CA  IDS B   1     -22.406  54.819   9.0530  0.00  0.00     0.000 C
ATOM     17   O  IDS B   1     -23.369  55.121   8.3510  0.00  0.00     0.000 OA
ATOM     18   O  IDS B   1     -21.317  54.674   8.5020  0.00  0.00     0.000 OA
ENDBRANCH 5 16
BRANCH 1 19
ATOM     19  O4  SGN B   2     -21.805  52.859  12.4250  0.00  0.00     0.000 O
BRANCH 19 23
ATOM     20  C1  SGN B   2     -19.472  49.498  12.3020  0.00  0.00     0.000 C
ATOM     21  C2  SGN B   2     -19.723  50.255  11.0170  0.00  0.00     0.000 C
ATOM     22  C3  SGN B   2     -20.053  51.669  11.3330  0.00  0.00     0.000 C
ATOM     23  C4  SGN B   2     -21.343  51.593  12.1170  0.00  0.00     0.000 C
ATOM     24  C5  SGN B   2     -20.985  50.912  13.3920  0.00  0.00     0.000 C
ATOM     25  O5  SGN B   2     -20.622  49.606  13.1290  0.00  0.00     0.000 O
ATOM     26   O  SGN B   2     -20.243  52.373  10.1560  0.00  0.00     0.000 O
ATOM     28  HD  SGN B   2     -20.548  52.800   9.4670  0.00  0.00     0.000 HD
BRANCH 21 30
ATOM     28   N  SGN B   2     -19.507  48.932  10.5080  0.00  0.00     0.000 N
ATOM     30  HD  SGN B   2     -18.880  48.684  11.0510  0.00  0.00     0.000 HD
ATOM     30 @NS  SGN B   2     -18.473  48.781   9.2630  0.00  0.00     0.000 S
ATOM     31   O  SGN B   2     -17.850  50.037   9.0170  0.00  0.00     0.000 OA
ATOM     32   O  SGN B   2     -17.548  47.826   9.7160  0.00  0.00     0.000 OA
ATOM     33   O  SGN B   2     -19.248  48.369   8.1540  0.00  0.00     0.000 OA
ENDBRANCH 21 30
BRANCH 24 34
ATOM     34   C  SGN B   2     -22.065  50.859  14.4090  0.00  0.00     0.000 C
ATOM     35   O  SGN B   2     -23.105  50.120  13.8750  0.00  0.00     0.000 O
ATOM     36  @S  SGN B   2     -24.310  49.657  14.6860  0.00  0.00     0.000 S
ATOM     37   O  SGN B   2     -25.282  50.719  14.5190  0.00  0.00     0.000 OA
ATOM     38   O  SGN B   2     -24.730  48.395  14.1220  0.00  0.00     0.000 OA
ATOM     39   O  SGN B   2     -23.821  49.515  16.0500  0.00  0.00     0.000 OA
ENDBRANCH 24 34
BRANCH 20 40
ATOM     40  O4  IDS B   3     -18.337  49.991  12.9450  0.00  0.00     0.000 O
BRANCH 40 44
ATOM     41  C1  IDS B   3     -15.093  49.838  14.2720  0.00  0.00     0.000 C
ATOM     42  C2  IDS B   3     -15.493  48.949  13.0950  0.00  0.00     0.000 C
ATOM     43  C3  IDS B   3     -16.839  48.213  13.2430  0.00  0.00     0.000 C
ATOM     44  C4  IDS B   3     -17.872  49.102  13.9060  0.00  0.00     0.000 C
ATOM     45  C5  IDS B   3     -17.291  49.873  15.1010  0.00  0.00     0.000 C
ATOM     46  O5  IDS B   3     -16.197  50.618  14.7040  0.00  0.00     0.000 O
ATOM     47   O  IDS B   3     -16.659  47.066  14.0470  0.00  0.00     0.000 O
ATOM     49  HD  IDS B   3     -17.037  47.556  13.4410  0.00  0.00     0.000 HD
BRANCH 42 49
ATOM     49   O  IDS B   3     -15.581  49.743  11.9470  0.00  0.00     0.000 O
ATOM     50   O  IDS B   3     -13.261  49.565  11.5840  0.00  0.00     0.000 OA
ATOM     51   O  IDS B   3     -14.726  49.508   9.7250  0.00  0.00     0.000 OA
ATOM     52   O  IDS B   3     -14.443  51.500  10.9580  0.00  0.00     0.000 OA
ATOM     53  @S  IDS B   3     -14.435  50.096  10.9950  0.00  0.00     0.000 S
ENDBRANCH 42 49
BRANCH 45 54
ATOM     54 @CA  IDS B   3     -18.279  50.767  15.8460  0.00  0.00     0.000 C
ATOM     55   O  IDS B   3     -18.888  50.373  16.8030  0.00  0.00     0.000 OA
ATOM     56   O  IDS B   3     -18.463  51.892  15.5170  0.00  0.00     0.000 OA
ENDBRANCH 45 54
BRANCH 41 57
ATOM     57  O4  SGN B   4     -14.586  49.051  15.2990  0.00  0.00     0.000 O
BRANCH 57 61
ATOM     58  C1  SGN B   4     -12.541  52.157  17.0770  0.00  0.00     0.000 C
ATOM     59  C2  SGN B   4     -11.783  51.407  15.9950  0.00  0.00     0.000 C
ATOM     60  C3  SGN B   4     -12.755  50.571  15.1680  0.00  0.00     0.000 C
ATOM     61  C4  SGN B   4     -13.571  49.628  16.0600  0.00  0.00     0.000 C
ATOM     62  C5  SGN B   4     -14.213  50.466  17.1620  0.00  0.00     0.000 C
ATOM     63  O5  SGN B   4     -13.243  51.215  17.8700  0.00  0.00     0.000 O
ATOM     64   O  SGN B   4     -12.017  49.792  14.2480  0.00  0.00     0.000 O
ATOM     66  HD  SGN B   4     -12.104  48.933  14.3150  0.00  0.00     0.000 HD
BRANCH 59 68
ATOM     66   N  SGN B   4     -11.137  52.428  15.1960  0.00  0.00     0.000 N
ATOM     68  HD  SGN B   4     -11.234  51.568  15.1750  0.00  0.00     0.000 HD
ATOM     68 @NS  SGN B   4      -9.745  53.120  15.7180  0.00  0.00     0.000 S
ATOM     69   O  SGN B   4      -9.828  53.281  17.1400  0.00  0.00     0.000 OA
ATOM     70   O  SGN B   4      -8.690  52.217  15.3570  0.00  0.00     0.000 OA
ATOM     71   O  SGN B   4      -9.686  54.369  15.0220  0.00  0.00     0.000 OA
ENDBRANCH 59 68
BRANCH 62 72
ATOM     72   C  SGN B   4     -14.951  49.623  18.1910  0.00  0.00     0.000 C
ATOM     73   O  SGN B   4     -14.368  49.939  19.4200  0.00  0.00     0.000 O
ATOM     74  @S  SGN B   4     -15.046  49.952  20.8020  0.00  0.00     0.000 S
ATOM     75   O  SGN B   4     -15.562  48.654  21.0320  0.00  0.00     0.000 OA
ATOM     76   O  SGN B   4     -13.988  50.284  21.7080  0.00  0.00     0.000 OA
ATOM     77   O  SGN B   4     -16.089  50.918  20.7140  0.00  0.00     0.000 OA
ENDBRANCH 62 72
BRANCH 58 78
ATOM     78  O4  IDS B   5     -13.400  53.116  16.4950  0.00  0.00     0.000 O
BRANCH 78 82
ATOM     79  C1  IDS B   5     -15.241  55.849  15.4290  0.00  0.00     0.000 C
ATOM     80  C2  IDS B   5     -13.762  55.822  15.1870  0.00  0.00     0.000 C
ATOM     81  C3  IDS B   5     -12.941  55.484  16.4270  0.00  0.00     0.000 C
ATOM     82  C4  IDS B   5     -13.518  54.325  17.2130  0.00  0.00     0.000 C
ATOM     83  C5  IDS B   5     -14.969  54.611  17.4380  0.00  0.00     0.000 C
ATOM     84  O5  IDS B   5     -15.628  54.720  16.1910  0.00  0.00     0.000 O
ATOM     85   O  IDS B   5     -12.946  56.613  17.2670  0.00  0.00     0.000 O
ATOM     87  HD  IDS B   5     -13.165  55.797  17.4590  0.00  0.00     0.000 HD
BRANCH 80 87
ATOM     87   O  IDS B   5     -13.498  54.850  14.2540  0.00  0.00     0.000 O
ATOM     88  @S  IDS B   5     -13.007  55.059  12.8190  0.00  0.00     0.000 S
ATOM     89   O  IDS B   5     -11.851  55.873  12.9400  0.00  0.00     0.000 OA
ATOM     90   O  IDS B   5     -12.753  53.756  12.3130  0.00  0.00     0.000 OA
ATOM     91   O  IDS B   5     -14.071  55.702  12.1300  0.00  0.00     0.000 OA
ENDBRANCH 80 87
BRANCH 83 92
ATOM     92 @CA  IDS B   5     -15.650  53.624  18.3780  0.00  0.00     0.000 C
ATOM     93   O  IDS B   5     -16.657  53.004  18.0260  0.00  0.00     0.000 OA
ATOM     94   O  IDS B   5     -15.207  53.430  19.5160  0.00  0.00     0.000 OA
ENDBRANCH 83 92
BRANCH 79 95
ATOM     95  O4  SGN B   6     -15.588  57.044  16.0450  0.00  0.00     0.000 O
BRANCH 95 99
ATOM     96  C1  SGN B   6     -19.206  58.758  17.1340  0.00  0.00     0.000 C
ATOM     97  C2  SGN B   6     -19.173  57.235  17.1030  0.00  0.00     0.000 C
ATOM     98  C3  SGN B   6     -17.705  56.828  17.2380  0.00  0.00     0.000 C
ATOM     99  C4  SGN B   6     -16.966  57.362  15.9770  0.00  0.00     0.000 C
ATOM    100  C5  SGN B   6     -17.127  58.909  15.9900  0.00  0.00     0.000 C
ATOM    101  O5  SGN B   6     -18.500  59.289  16.0290  0.00  0.00     0.000 O
BRANCH 97 104
ATOM    102   N  SGN B   6     -20.626  57.371  16.9640  0.00  0.00     0.000 N
ATOM    104  HD  SGN B   6     -20.977  57.543  17.7360  0.00  0.00     0.000 HD
ATOM    104 @NS  SGN B   6     -21.580  56.258  17.7410  0.00  0.00     0.000 S
ATOM    105   O  SGN B   6     -20.706  55.358  18.4620  0.00  0.00     0.000 OA
ATOM    106   O  SGN B   6     -22.448  57.000  18.6250  0.00  0.00     0.000 OA
ATOM    107   O  SGN B   6     -22.310  55.564  16.7040  0.00  0.00     0.000 OA
ENDBRANCH 97 104
BRANCH 100 108
ATOM    108   C  SGN B   6     -16.519  59.656  14.8090  0.00  0.00     0.000 C
ATOM    109   O  SGN B   6     -17.548  60.178  14.0070  0.00  0.00     0.000 O
ATOM    110  @S  SGN B   6     -17.353  61.010  12.6870  0.00  0.00     0.000 S
ATOM    111   O  SGN B   6     -16.264  60.381  11.9790  0.00  0.00     0.000 OA
ATOM    112   O  SGN B   6     -18.607  60.920  11.9560  0.00  0.00     0.000 OA
ATOM    113   O  SGN B   6     -17.040  62.355  13.1150  0.00  0.00     0.000 OA
ENDBRANCH 100 108
ENDBRANCH 95 99
ENDBRANCH 79 95
ENDBRANCH 78 82
ENDBRANCH 58 78
ENDBRANCH 57 61
ENDBRANCH 41 57
ENDBRANCH 40 44
ENDBRANCH 20 40
ENDBRANCH 19 23
ENDBRANCH 1 19
TORSDOF 22
ENDMDL
MODEL 22
REMARK VINA RESULT:      -2.7      5.605     11.809
ROOT
ATOM      1  C1  IDS B   1     -16.737  58.419  13.9350  0.00  0.00     0.000 C
ATOM      2  C2  IDS B   1     -15.390  58.317  14.6000  0.00  0.00     0.000 C
ATOM      3  C3  IDS B   1     -14.213  57.885  13.6930  0.00  0.00     0.000 C
ATOM      4  C4  IDS B   1     -14.402  58.283  12.1810  0.00  0.00     0.000 C
ATOM      5  C5  IDS B   1     -15.891  58.364  11.7660  0.00  0.00     0.000 C
ATOM      6  O5  IDS B   1     -16.613  59.110  12.7080  0.00  0.00     0.000 O
ATOM      7   O  IDS B   1     -14.064  56.476  13.8360  0.00  0.00     0.000 O
ATOM      9  HD  IDS B   1     -13.737  56.726  13.0740  0.00  0.00     0.000 HD
ATOM      9   O  IDS B   1     -13.830  59.559  11.9990  0.00  0.00     0.000 O
ATOM     11  HD  IDS B   1     -13.502  59.808  11.2370  0.00  0.00     0.000 HD
ENDROOT
BRANCH 2 11
ATOM     11   O  IDS B   1     -15.040  59.546  15.1370  0.00  0.00     0.000 O
ATOM     12  @S  IDS B   1     -15.098  59.889  16.6380  0.00  0.00     0.000 S
ATOM     13   O  IDS B   1     -16.118  59.002  17.1580  0.00  0.00     0.000 OA
ATOM     14   O  IDS B   1     -13.782  59.604  17.1810  0.00  0.00     0.000 OA
ATOM     15   O  IDS B   1     -15.443  61.295  16.7090  0.00  0.00     0.000 OA
ENDBRANCH 2 11
BRANCH 5 16
ATOM     16 @CA  IDS B   1     -16.180  58.887  10.3630  0.00  0.00     0.000 C
ATOM     17   O  IDS B   1     -15.318  58.895   9.4870  0.00  0.00     0.000 OA
ATOM     18   O  IDS B   1     -17.299  59.304  10.0710  0.00  0.00     0.000 OA
ENDBRANCH 5 16
BRANCH 1 19
ATOM     19  O4  SGN B   2     -17.223  57.109  13.7280  0.00  0.00     0.000 O
BRANCH 19 23
ATOM     20  C1  SGN B   2     -20.971  55.481  13.9660  0.00  0.00     0.000 C
ATOM     21  C2  SGN B   2     -20.591  56.249  12.7190  0.00  0.00     0.000 C
ATOM     22  C3  SGN B   2     -19.112  56.240  12.5650  0.00  0.00     0.000 C
ATOM     23  C4  SGN B   2     -18.598  56.985  13.7760  0.00  0.00     0.000 C
ATOM     24  C5  SGN B   2     -18.941  56.122  14.9410  0.00  0.00     0.000 C
ATOM     25  O5  SGN B   2     -20.314  56.065  15.0820  0.00  0.00     0.000 O
ATOM     26   O  SGN B   2     -18.765  56.907  11.4040  0.00  0.00     0.000 O
ATOM     28  HD  SGN B   2     -18.495  57.465  10.7980  0.00  0.00     0.000 HD
BRANCH 21 30
ATOM     28   N  SGN B   2     -21.265  55.692  11.5840  0.00  0.00     0.000 N
ATOM     30  HD  SGN B   2     -20.999  56.257  10.9840  0.00  0.00     0.000 HD
ATOM     30 @NS  SGN B   2     -22.799  56.166  11.3330  0.00  0.00     0.000 S
ATOM     31   O  SGN B   2     -23.126  57.202  12.2540  0.00  0.00     0.000 OA
ATOM     32   O  SGN B   2     -22.787  56.638  10.0090  0.00  0.00     0.000 OA
ATOM     33   O  SGN B   2     -23.606  55.024  11.5430  0.00  0.00     0.000 OA
ENDBRANCH 21 30
BRANCH 24 34
ATOM     34   C  SGN B   2     -18.394  56.569  16.2460  0.00  0.00     0.000 C
ATOM     35   O  SGN B   2     -18.709  55.602  17.1840  0.00  0.00     0.000 O
ATOM     36  @S  SGN B   2     -18.142  55.586  18.5980  0.00  0.00     0.000 S
ATOM     37   O  SGN B   2     -19.109  56.332  19.3780  0.00  0.00     0.000 OA
ATOM     38   O  SGN B   2     -18.031  54.199  18.9860  0.00  0.00     0.000 OA
ATOM     39   O  SGN B   2     -16.841  56.235  18.4950  0.00  0.00     0.000 OA
ENDBRANCH 24 34
BRANCH 20 40
ATOM     40  O4  IDS B   3     -20.637  54.133  13.8300  0.00  0.00     0.000 O
BRANCH 40 44
ATOM     41  C1  IDS B   3     -21.158  50.699  13.3450  0.00  0.00     0.000 C
ATOM     42  C2  IDS B   3     -22.054  51.724  12.6520  0.00  0.00     0.000 C
ATOM     43  C3  IDS B   3     -22.584  52.859  13.5500  0.00  0.00     0.000 C
ATOM     44  C4  IDS B   3     -21.521  53.320  14.5270  0.00  0.00     0.000 C
ATOM     45  C5  IDS B   3     -20.766  52.140  15.1580  0.00  0.00     0.000 C
ATOM     46  O5  IDS B   3     -20.206  51.348  14.1740  0.00  0.00     0.000 O
ATOM     47   O  IDS B   3     -23.693  52.392  14.2890  0.00  0.00     0.000 O
ATOM     49  HD  IDS B   3     -23.194  52.984  13.9000  0.00  0.00     0.000 HD
BRANCH 42 49
ATOM     49   O  IDS B   3     -21.327  52.322  11.6170  0.00  0.00     0.000 O
ATOM     50   O  IDS B   3     -22.027  50.664  10.0990  0.00  0.00     0.000 OA
ATOM     51   O  IDS B   3     -21.872  52.908   9.3620  0.00  0.00     0.000 OA
ATOM     52   O  IDS B   3     -19.920  51.690   9.8900  0.00  0.00     0.000 OA
ATOM     53  @S  IDS B   3     -21.289  51.871  10.1550  0.00  0.00     0.000 S
ENDBRANCH 42 49
BRANCH 45 54
ATOM     54 @CA  IDS B   3     -19.699  52.519  16.1820  0.00  0.00     0.000 C
ATOM     55   O  IDS B   3     -19.965  52.669  17.3440  0.00  0.00     0.000 OA
ATOM     56   O  IDS B   3     -18.563  52.657  15.8670  0.00  0.00     0.000 OA
ENDBRANCH 45 54
BRANCH 41 57
ATOM     57  O4  SGN B   4     -21.943  49.806  14.0650  0.00  0.00     0.000 O
BRANCH 57 61
ATOM     58  C1  SGN B   4     -19.004  46.915  14.1270  0.00  0.00     0.000 C
ATOM     59  C2  SGN B   4     -19.997  46.817  12.9810  0.00  0.00     0.000 C
ATOM     60  C3  SGN B   4     -20.764  48.129  12.8480  0.00  0.00     0.000 C
ATOM     61  C4  SGN B   4     -21.444  48.508  14.1680  0.00  0.00     0.000 C
ATOM     62  C5  SGN B   4     -20.381  48.489  15.2640  0.00  0.00     0.000 C
ATOM     63  O5  SGN B   4     -19.713  47.242  15.3100  0.00  0.00     0.000 O
ATOM     64   O  SGN B   4     -21.761  47.974  11.8580  0.00  0.00     0.000 O
ATOM     66  HD  SGN B   4     -22.580  48.090  12.1150  0.00  0.00     0.000 HD
BRANCH 59 68
ATOM     66   N  SGN B   4     -19.381  46.478  11.7140  0.00  0.00     0.000 N
ATOM     68  HD  SGN B   4     -20.182  46.556  12.0340  0.00  0.00     0.000 HD
ATOM     68 @NS  SGN B   4     -18.681  45.009  11.5090  0.00  0.00     0.000 S
ATOM     69   O  SGN B   4     -18.027  44.648  12.7320  0.00  0.00     0.000 OA
ATOM     70   O  SGN B   4     -19.745  44.100  11.1980  0.00  0.00     0.000 OA
ATOM     71   O  SGN B   4     -17.763  45.202  10.4270  0.00  0.00     0.000 OA
ENDBRANCH 59 68
BRANCH 62 72
ATOM     72   C  SGN B   4     -20.957  48.727  16.6510  0.00  0.00     0.000 C
ATOM     73   O  SGN B   4     -20.976  47.475  17.2690  0.00  0.00     0.000 O
ATOM     74  @S  SGN B   4     -20.811  47.167  18.7670  0.00  0.00     0.000 S
ATOM     75   O  SGN B   4     -21.832  47.865  19.4570  0.00  0.00     0.000 OA
ATOM     76   O  SGN B   4     -20.969  45.747  18.8540  0.00  0.00     0.000 OA
ATOM     77   O  SGN B   4     -19.520  47.652  19.1230  0.00  0.00     0.000 OA
ENDBRANCH 62 72
BRANCH 58 78
ATOM     78  O4  IDS B   5     -18.002  47.864  13.8230  0.00  0.00     0.000 O
BRANCH 78 82
ATOM     79  C1  IDS B   5     -15.190  49.823  13.3210  0.00  0.00     0.000 C
ATOM     80  C2  IDS B   5     -15.449  48.666  12.4050  0.00  0.00     0.000 C
ATOM     81  C3  IDS B   5     -15.745  47.358  13.1350  0.00  0.00     0.000 C
ATOM     82  C4  IDS B   5     -16.710  47.537  14.2880  0.00  0.00     0.000 C
ATOM     83  C5  IDS B   5     -16.202  48.663  15.1300  0.00  0.00     0.000 C
ATOM     84  O5  IDS B   5     -16.154  49.848  14.3570  0.00  0.00     0.000 O
ATOM     85   O  IDS B   5     -14.533  46.877  13.6630  0.00  0.00     0.000 O
ATOM     87  HD  IDS B   5     -15.281  47.020  14.0750  0.00  0.00     0.000 HD
BRANCH 80 87
ATOM     87   O  IDS B   5     -16.553  48.958  11.6450  0.00  0.00     0.000 O
ATOM     88  @S  IDS B   5     -16.609  49.114  10.1230  0.00  0.00     0.000 S
ATOM     89   O  IDS B   5     -16.030  47.925   9.6100  0.00  0.00     0.000 OA
ATOM     90   O  IDS B   5     -17.985  49.275   9.8100  0.00  0.00     0.000 OA
ATOM     91   O  IDS B   5     -15.853  50.278   9.8190  0.00  0.00     0.000 OA
ENDBRANCH 80 87
BRANCH 83 92
ATOM     92 @CA  IDS B   5     -16.965  48.845  16.4370  0.00  0.00     0.000 C
ATOM     93   O  IDS B   5     -17.487  49.926  16.7220  0.00  0.00     0.000 OA
ATOM     94   O  IDS B   5     -17.071  47.910  17.2400  0.00  0.00     0.000 OA
ENDBRANCH 83 92
BRANCH 79 95
ATOM     95  O4  SGN B   6     -13.893  49.745  13.8110  0.00  0.00     0.000 O
BRANCH 95 99
ATOM     96  C1  SGN B   6     -11.450  52.091  16.2070  0.00  0.00     0.000 C
ATOM     97  C2  SGN B   6     -12.698  51.529  16.8760  0.00  0.00     0.000 C
ATOM     98  C3  SGN B   6     -13.123  50.311  16.0560  0.00  0.00     0.000 C
ATOM     99  C4  SGN B   6     -13.513  50.828  14.6410  0.00  0.00     0.000 C
ATOM    100  C5  SGN B   6     -12.240  51.496  14.0460  0.00  0.00     0.000 C
ATOM    101  O5  SGN B   6     -11.749  52.528  14.8950  0.00  0.00     0.000 O
BRANCH 97 104
ATOM    102   N  SGN B   6     -13.153  52.574  17.7990  0.00  0.00     0.000 N
ATOM    104  HD  SGN B   6     -12.468  52.952  18.1710  0.00  0.00     0.000 HD
ATOM    104 @NS  SGN B   6     -12.828  52.368  19.4130  0.00  0.00     0.000 S
ATOM    105   O  SGN B   6     -12.086  51.134  19.5580  0.00  0.00     0.000 OA
ATOM    106   O  SGN B   6     -12.061  53.518  19.8330  0.00  0.00     0.000 OA
ATOM    107   O  SGN B   6     -14.112  52.290  20.0730  0.00  0.00     0.000 OA
ENDBRANCH 97 104
BRANCH 100 108
ATOM    108   C  SGN B   6     -12.398  52.126  12.6670  0.00  0.00     0.000 C
ATOM    109   O  SGN B   6     -13.380  53.131  12.7220  0.00  0.00     0.000 O
ATOM    110  @S  SGN B   6     -13.853  54.022  11.5170  0.00  0.00     0.000 S
ATOM    111   O  SGN B   6     -13.919  53.142  10.3750  0.00  0.00     0.000 OA
ATOM    112   O  SGN B   6     -15.160  54.546  11.8820  0.00  0.00     0.000 OA
ATOM    113   O  SGN B   6     -12.848  55.050  11.3730  0.00  0.00     0.000 OA
ENDBRANCH 100 108
ENDBRANCH 95 99
ENDBRANCH 79 95
ENDBRANCH 78 82
ENDBRANCH 58 78
ENDBRANCH 57 61
ENDBRANCH 41 57
ENDBRANCH 40 44
ENDBRANCH 20 40
ENDBRANCH 19 23
ENDBRANCH 1 19
TORSDOF 22
ENDMDL
MODEL 23
REMARK VINA RESULT:      -2.4      4.362     12.231
ROOT
ATOM      1  C1  IDS B   1     -27.749  48.388  12.9990  0.00  0.00     0.000 C
ATOM      2  C2  IDS B   1     -27.926  49.277  11.7970  0.00  0.00     0.000 C
ATOM      3  C3  IDS B   1     -27.736  48.603  10.4170  0.00  0.00     0.000 C
ATOM      4  C4  IDS B   1     -28.075  47.065  10.4120  0.00  0.00     0.000 C
ATOM      5  C5  IDS B   1     -27.850  46.399  11.7910  0.00  0.00     0.000 C
ATOM      6  O5  IDS B   1     -28.441  47.172  12.8010  0.00  0.00     0.000 O
ATOM      7   O  IDS B   1     -26.387  48.829  10.0190  0.00  0.00     0.000 O
ATOM      9  HD  IDS B   1     -26.692  48.124   9.6190  0.00  0.00     0.000 HD
ATOM      9   O  IDS B   1     -29.439  46.929  10.0810  0.00  0.00     0.000 O
ATOM     11  HD  IDS B   1     -29.744  46.224   9.6820  0.00  0.00     0.000 HD
ENDROOT
BRANCH 2 11
ATOM     11   O  IDS B   1     -29.205  49.813  11.7980  0.00  0.00     0.000 O
ATOM     12  @S  IDS B   1     -29.528  51.297  11.5370  0.00  0.00     0.000 S
ATOM     13   O  IDS B   1     -28.323  51.991  11.9450  0.00  0.00     0.000 OA
ATOM     14   O  IDS B   1     -29.790  51.422  10.1150  0.00  0.00     0.000 OA
ATOM     15   O  IDS B   1     -30.689  51.597  12.3520  0.00  0.00     0.000 OA
ENDBRANCH 2 11
BRANCH 5 16
ATOM     16 @CA  IDS B   1     -28.293  44.946  11.9280  0.00  0.00     0.000 C
ATOM     17   O  IDS B   1     -28.196  44.340  12.9920  0.00  0.00     0.000 OA
ATOM     18   O  IDS B   1     -28.775  44.349  10.9680  0.00  0.00     0.000 OA
ENDBRANCH 5 16
BRANCH 1 19
ATOM     19  O4  SGN B   2     -26.366  48.157  13.1720  0.00  0.00     0.000 O
BRANCH 19 23
ATOM     20  C1  SGN B   2     -24.029  47.849  16.5190  0.00  0.00     0.000 C
ATOM     21  C2  SGN B   2     -24.780  46.625  16.0410  0.00  0.00     0.000 C
ATOM     22  C3  SGN B   2     -25.061  46.754  14.5880  0.00  0.00     0.000 C
ATOM     23  C4  SGN B   2     -25.968  47.958  14.4800  0.00  0.00     0.000 C
ATOM     24  C5  SGN B   2     -25.128  49.118  14.8870  0.00  0.00     0.000 C
ATOM     25  O5  SGN B   2     -24.803  49.003  16.2240  0.00  0.00     0.000 O
ATOM     26   O  SGN B   2     -25.711  45.617  14.1410  0.00  0.00     0.000 O
ATOM     28  HD  SGN B   2     -26.273  45.020  13.8610  0.00  0.00     0.000 HD
BRANCH 21 30
ATOM     28   N  SGN B   2     -24.803  46.295  17.4360  0.00  0.00     0.000 N
ATOM     30  HD  SGN B   2     -24.069  46.688  17.6760  0.00  0.00     0.000 HD
ATOM     30 @NS  SGN B   2     -24.165  44.863  17.8650  0.00  0.00     0.000 S
ATOM     31   O  SGN B   2     -23.549  44.266  16.7290  0.00  0.00     0.000 OA
ATOM     32   O  SGN B   2     -23.218  45.205  18.8450  0.00  0.00     0.000 OA
ATOM     33   O  SGN B   2     -25.241  44.075  18.3360  0.00  0.00     0.000 OA
ENDBRANCH 21 30
BRANCH 24 34
ATOM     34   C  SGN B   2     -25.757  50.451  14.7120  0.00  0.00     0.000 C
ATOM     35   O  SGN B   2     -25.332  51.254  15.7550  0.00  0.00     0.000 O
ATOM     36  @S  SGN B   2     -25.585  52.755  15.8180  0.00  0.00     0.000 S
ATOM     37   O  SGN B   2     -26.838  52.876  16.5360  0.00  0.00     0.000 OA
ATOM     38   O  SGN B   2     -24.461  53.338  16.5130  0.00  0.00     0.000 OA
ATOM     39   O  SGN B   2     -25.658  53.188  14.4290  0.00  0.00     0.000 OA
ENDBRANCH 24 34
BRANCH 20 40
ATOM     40  O4  IDS B   3     -22.772  47.915  15.9190  0.00  0.00     0.000 O
BRANCH 40 44
ATOM     41  C1  IDS B   3     -19.342  48.298  15.2900  0.00  0.00     0.000 C
ATOM     42  C2  IDS B   3     -19.916  46.929  15.6500  0.00  0.00     0.000 C
ATOM     43  C3  IDS B   3     -20.876  46.905  16.8560  0.00  0.00     0.000 C
ATOM     44  C4  IDS B   3     -21.773  48.127  16.8600  0.00  0.00     0.000 C
ATOM     45  C5  IDS B   3     -20.999  49.413  16.5270  0.00  0.00     0.000 C
ATOM     46  O5  IDS B   3     -20.361  49.287  15.3090  0.00  0.00     0.000 O
ATOM     47   O  IDS B   3     -20.125  46.903  18.0510  0.00  0.00     0.000 O
ATOM     49  HD  IDS B   3     -20.812  46.746  17.5490  0.00  0.00     0.000 HD
BRANCH 42 49
ATOM     49   O  IDS B   3     -20.627  46.442  14.5480  0.00  0.00     0.000 O
ATOM     50   O  IDS B   3     -18.638  45.695  13.5320  0.00  0.00     0.000 OA
ATOM     51   O  IDS B   3     -20.587  44.362  13.3660  0.00  0.00     0.000 OA
ATOM     52   O  IDS B   3     -20.460  46.431  12.2390  0.00  0.00     0.000 OA
ATOM     53  @S  IDS B   3     -20.043  45.684  13.3530  0.00  0.00     0.000 S
ENDBRANCH 42 49
BRANCH 45 54
ATOM     54 @CA  IDS B   3     -21.826  50.696  16.5450  0.00  0.00     0.000 C
ATOM     55   O  IDS B   3     -22.166  51.214  17.5750  0.00  0.00     0.000 OA
ATOM     56   O  IDS B   3     -22.143  51.240  15.5390  0.00  0.00     0.000 OA
ENDBRANCH 45 54
BRANCH 41 57
ATOM     57  O4  SGN B   4     -18.306  48.612  16.1610  0.00  0.00     0.000 O
BRANCH 57 61
ATOM     58  C1  SGN B   4     -16.809  51.699  13.8750  0.00  0.00     0.000 C
ATOM     59  C2  SGN B   4     -16.350  50.306  13.4780  0.00  0.00     0.000 C
ATOM     60  C3  SGN B   4     -17.255  49.260  14.1220  0.00  0.00     0.000 C
ATOM     61  C4  SGN B   4     -17.309  49.438  15.6440  0.00  0.00     0.000 C
ATOM     62  C5  SGN B   4     -17.688  50.888  15.9320  0.00  0.00     0.000 C
ATOM     63  O5  SGN B   4     -16.805  51.788  15.2890  0.00  0.00     0.000 O
ATOM     64   O  SGN B   4     -16.740  47.976  13.8380  0.00  0.00     0.000 O
ATOM     66  HD  SGN B   4     -16.518  47.490  14.5200  0.00  0.00     0.000 HD
BRANCH 59 68
ATOM     66   N  SGN B   4     -15.179  50.759  12.7550  0.00  0.00     0.000 N
ATOM     68  HD  SGN B   4     -15.783  51.103  13.2720  0.00  0.00     0.000 HD
ATOM     68 @NS  SGN B   4     -15.239  50.941  11.1270  0.00  0.00     0.000 S
ATOM     69   O  SGN B   4     -16.038  49.882  10.5850  0.00  0.00     0.000 OA
ATOM     70   O  SGN B   4     -15.840  52.221  10.8900  0.00  0.00     0.000 OA
ATOM     71   O  SGN B   4     -13.871  50.870  10.7110  0.00  0.00     0.000 OA
ENDBRANCH 59 68
BRANCH 62 72
ATOM     72   C  SGN B   4     -17.651  51.225  17.4150  0.00  0.00     0.000 C
ATOM     73   O  SGN B   4     -16.341  51.633  17.6740  0.00  0.00     0.000 O
ATOM     74  @S  SGN B   4     -15.870  52.661  18.7170  0.00  0.00     0.000 S
ATOM     75   O  SGN B   4     -16.305  52.206  19.9860  0.00  0.00     0.000 OA
ATOM     76   O  SGN B   4     -14.443  52.652  18.5980  0.00  0.00     0.000 OA
ATOM     77   O  SGN B   4     -16.496  53.889  18.3630  0.00  0.00     0.000 OA
ENDBRANCH 62 72
BRANCH 58 78
ATOM     78  O4  IDS B   5     -18.082  51.968  13.3240  0.00  0.00     0.000 O
BRANCH 78 82
ATOM     79  C1  IDS B   5     -21.094  53.211  12.1490  0.00  0.00     0.000 C
ATOM     80  C2  IDS B   5     -20.034  52.813  11.1690  0.00  0.00     0.000 C
ATOM     81  C3  IDS B   5     -18.660  53.404  11.4720  0.00  0.00     0.000 C
ATOM     82  C4  IDS B   5     -18.294  53.309  12.9390  0.00  0.00     0.000 C
ATOM     83  C5  IDS B   5     -19.440  53.860  13.7260  0.00  0.00     0.000 C
ATOM     84  O5  IDS B   5     -20.601  53.092  13.4720  0.00  0.00     0.000 O
ATOM     85   O  IDS B   5     -18.694  54.768  11.1290  0.00  0.00     0.000 O
ATOM     87  HD  IDS B   5     -18.462  54.408  11.8810  0.00  0.00     0.000 HD
BRANCH 80 87
ATOM     87   O  IDS B   5     -19.900  51.447  11.2110  0.00  0.00     0.000 O
ATOM     88  @S  IDS B   5     -19.824  50.491  10.0180  0.00  0.00     0.000 S
ATOM     89   O  IDS B   5     -18.785  51.005   9.2000  0.00  0.00     0.000 OA
ATOM     90   O  IDS B   5     -19.551  49.213  10.5750  0.00  0.00     0.000 OA
ATOM     91   O  IDS B   5     -21.100  50.540   9.3940  0.00  0.00     0.000 OA
ENDBRANCH 80 87
BRANCH 83 92
ATOM     92 @CA  IDS B   5     -19.148  54.006  15.2150  0.00  0.00     0.000 C
ATOM     93   O  IDS B   5     -18.132  54.584  15.6090  0.00  0.00     0.000 OA
ATOM     94   O  IDS B   5     -19.926  53.542  16.0570  0.00  0.00     0.000 OA
ENDBRANCH 83 92
BRANCH 79 95
ATOM     95  O4  SGN B   6     -21.530  54.498  11.8640  0.00  0.00     0.000 O
BRANCH 95 99
ATOM     96  C1  SGN B   6     -24.477  57.035  13.3110  0.00  0.00     0.000 C
ATOM     97  C2  SGN B   6     -23.590  56.376  14.3620  0.00  0.00     0.000 C
ATOM     98  C3  SGN B   6     -22.298  55.971  13.6500  0.00  0.00     0.000 C
ATOM     99  C4  SGN B   6     -22.679  54.902  12.5860  0.00  0.00     0.000 C
ATOM    100  C5  SGN B   6     -23.674  55.587  11.6060  0.00  0.00     0.000 C
ATOM    101  O5  SGN B   6     -24.807  56.109  12.2940  0.00  0.00     0.000 O
BRANCH 97 104
ATOM    102   N  SGN B   6     -23.369  56.258  15.8060  0.00  0.00     0.000 N
ATOM    104  HD  SGN B   6     -24.058  55.888  16.1770  0.00  0.00     0.000 HD
ATOM    104 @NS  SGN B   6     -24.369  57.120  16.8100  0.00  0.00     0.000 S
ATOM    105   O  SGN B   6     -25.327  57.819  15.9800  0.00  0.00     0.000 OA
ATOM    106   O  SGN B   6     -25.003  56.163  17.6870  0.00  0.00     0.000 OA
ATOM    107   O  SGN B   6     -23.518  58.045  17.5240  0.00  0.00     0.000 OA
ENDBRANCH 97 104
BRANCH 100 108
ATOM    108   C  SGN B   6     -24.230  54.707  10.4920  0.00  0.00     0.000 C
ATOM    109   O  SGN B   6     -25.144  55.448   9.7240  0.00  0.00     0.000 O
ATOM    110  @S  SGN B   6     -25.948  54.914   8.4830  0.00  0.00     0.000 S
ATOM    111   O  SGN B   6     -26.357  53.573   8.8230  0.00  0.00     0.000 OA
ATOM    112   O  SGN B   6     -27.084  55.807   8.3140  0.00  0.00     0.000 OA
ATOM    113   O  SGN B   6     -25.024  54.953   7.3720  0.00  0.00     0.000 OA
ENDBRANCH 100 108
ENDBRANCH 95 99
ENDBRANCH 79 95
ENDBRANCH 78 82
ENDBRANCH 58 78
ENDBRANCH 57 61
ENDBRANCH 41 57
ENDBRANCH 40 44
ENDBRANCH 20 40
ENDBRANCH 19 23
ENDBRANCH 1 19
TORSDOF 22
ENDMDL
MODEL 24
REMARK VINA RESULT:      -2.2      5.225     14.391
ROOT
ATOM      1  C1  IDS B   1     -20.786  47.450  16.8850  0.00  0.00     0.000 C
ATOM      2  C2  IDS B   1     -20.188  46.934  18.1680  0.00  0.00     0.000 C
ATOM      3  C3  IDS B   1     -21.149  46.839  19.3770  0.00  0.00     0.000 C
ATOM      4  C4  IDS B   1     -22.654  46.612  18.9730  0.00  0.00     0.000 C
ATOM      5  C5  IDS B   1     -22.994  47.201  17.5820  0.00  0.00     0.000 C
ATOM      6  O5  IDS B   1     -22.025  46.814  16.6450  0.00  0.00     0.000 O
ATOM      7   O  IDS B   1     -20.998  48.037  20.1320  0.00  0.00     0.000 O
ATOM      9  HD  IDS B   1     -21.778  47.694  20.2860  0.00  0.00     0.000 HD
ATOM      9   O  IDS B   1     -22.879  45.221  18.9220  0.00  0.00     0.000 O
ATOM     11  HD  IDS B   1     -23.660  44.879  19.0770  0.00  0.00     0.000 HD
ENDROOT
BRANCH 2 11
ATOM     11   O  IDS B   1     -19.684  45.659  17.9670  0.00  0.00     0.000 O
ATOM     12  @S  IDS B   1     -18.185  45.300  17.9950  0.00  0.00     0.000 S
ATOM     13   O  IDS B   1     -17.526  46.535  17.6240  0.00  0.00     0.000 OA
ATOM     14   O  IDS B   1     -17.880  44.892  19.3550  0.00  0.00     0.000 OA
ATOM     15   O  IDS B   1     -18.017  44.227  17.0350  0.00  0.00     0.000 OA
ENDBRANCH 2 11
BRANCH 5 16
ATOM     16 @CA  IDS B   1     -24.387  46.901  17.0360  0.00  0.00     0.000 C
ATOM     17   O  IDS B   1     -24.892  47.584  16.1480  0.00  0.00     0.000 OA
ATOM     18   O  IDS B   1     -25.035  45.952  17.4700  0.00  0.00     0.000 OA
ENDBRANCH 5 16
BRANCH 1 19
ATOM     19  O4  SGN B   2     -20.953  48.846  17.0120  0.00  0.00     0.000 O
BRANCH 19 23
ATOM     20  C1  SGN B   2     -21.676  51.681  14.1480  0.00  0.00     0.000 C
ATOM     21  C2  SGN B   2     -22.836  51.170  14.9740  0.00  0.00     0.000 C
ATOM     22  C3  SGN B   2     -22.328  50.645  16.2680  0.00  0.00     0.000 C
ATOM     23  C4  SGN B   2     -21.447  49.477  15.8860  0.00  0.00     0.000 C
ATOM     24  C5  SGN B   2     -20.298  50.078  15.1540  0.00  0.00     0.000 C
ATOM     25  O5  SGN B   2     -20.744  50.624  13.9660  0.00  0.00     0.000 O
ATOM     26   O  SGN B   2     -23.392  50.215  17.0420  0.00  0.00     0.000 O
ATOM     28  HD  SGN B   2     -23.996  49.771  17.4760  0.00  0.00     0.000 HD
BRANCH 21 30
ATOM     28   N  SGN B   2     -23.895  51.144  14.0080  0.00  0.00     0.000 N
ATOM     30  HD  SGN B   2     -23.453  51.434  13.3220  0.00  0.00     0.000 HD
ATOM     30 @NS  SGN B   2     -24.854  52.453  13.9300  0.00  0.00     0.000 S
ATOM     31   O  SGN B   2     -24.329  53.470  14.7780  0.00  0.00     0.000 OA
ATOM     32   O  SGN B   2     -24.793  52.828  12.5770  0.00  0.00     0.000 OA
ATOM     33   O  SGN B   2     -26.132  52.034  14.3670  0.00  0.00     0.000 OA
ENDBRANCH 21 30
BRANCH 24 34
ATOM     34   C  SGN B   2     -19.203  49.137  14.8080  0.00  0.00     0.000 C
ATOM     35   O  SGN B   2     -18.171  49.880  14.2630  0.00  0.00     0.000 O
ATOM     36  @S  SGN B   2     -16.786  49.311  13.9780  0.00  0.00     0.000 S
ATOM     37   O  SGN B   2     -16.868  48.844  12.6080  0.00  0.00     0.000 OA
ATOM     38   O  SGN B   2     -15.846  50.392  14.1650  0.00  0.00     0.000 OA
ATOM     39   O  SGN B   2     -16.602  48.246  14.9530  0.00  0.00     0.000 OA
ENDBRANCH 24 34
BRANCH 20 40
ATOM     40  O4  IDS B   3     -21.082  52.780  14.7680  0.00  0.00     0.000 O
BRANCH 40 44
ATOM     41  C1  IDS B   3     -19.819  55.979  14.0760  0.00  0.00     0.000 C
ATOM     42  C2  IDS B   3     -20.557  55.187  12.9990  0.00  0.00     0.000 C
ATOM     43  C3  IDS B   3     -20.127  53.715  12.8420  0.00  0.00     0.000 C
ATOM     44  C4  IDS B   3     -19.855  53.083  14.1920  0.00  0.00     0.000 C
ATOM     45  C5  IDS B   3     -19.056  54.016  15.1160  0.00  0.00     0.000 C
ATOM     46  O5  IDS B   3     -19.716  55.218  15.2710  0.00  0.00     0.000 O
ATOM     47   O  IDS B   3     -18.943  53.652  12.0760  0.00  0.00     0.000 O
ATOM     49  HD  IDS B   3     -19.690  53.360  12.4030  0.00  0.00     0.000 HD
BRANCH 42 49
ATOM     49   O  IDS B   3     -21.922  55.187  13.3020  0.00  0.00     0.000 O
ATOM     50   O  IDS B   3     -22.210  57.267  12.2350  0.00  0.00     0.000 OA
ATOM     51   O  IDS B   3     -23.886  55.613  12.0030  0.00  0.00     0.000 OA
ATOM     52   O  IDS B   3     -23.527  56.660  14.0880  0.00  0.00     0.000 OA
ATOM     53  @S  IDS B   3     -22.947  56.242  12.8780  0.00  0.00     0.000 S
ENDBRANCH 42 49
BRANCH 45 54
ATOM     54 @CA  IDS B   3     -18.709  53.439  16.4870  0.00  0.00     0.000 C
ATOM     55   O  IDS B   3     -18.665  54.129  17.4690  0.00  0.00     0.000 OA
ATOM     56   O  IDS B   3     -18.492  52.281  16.6320  0.00  0.00     0.000 OA
ENDBRANCH 45 54
BRANCH 41 57
ATOM     57  O4  SGN B   4     -18.571  56.361  13.6010  0.00  0.00     0.000 O
BRANCH 57 61
ATOM     58  C1  SGN B   4     -15.831  59.420  13.9690  0.00  0.00     0.000 C
ATOM     59  C2  SGN B   4     -16.112  58.634  15.2390  0.00  0.00     0.000 C
ATOM     60  C3  SGN B   4     -16.814  57.324  14.8920  0.00  0.00     0.000 C
ATOM     61  C4  SGN B   4     -18.087  57.578  14.0780  0.00  0.00     0.000 C
ATOM     62  C5  SGN B   4     -17.712  58.448  12.8810  0.00  0.00     0.000 C
ATOM     63  O5  SGN B   4     -17.058  59.634  13.2920  0.00  0.00     0.000 O
ATOM     64   O  SGN B   4     -17.170  56.668  16.0910  0.00  0.00     0.000 O
ATOM     66  HD  SGN B   4     -18.015  56.519  16.2120  0.00  0.00     0.000 HD
BRANCH 59 68
ATOM     66   N  SGN B   4     -15.647  59.634  16.1780  0.00  0.00     0.000 N
ATOM     68  HD  SGN B   4     -15.833  59.589  15.3330  0.00  0.00     0.000 HD
ATOM     68 @NS  SGN B   4     -14.099  59.596  16.7180  0.00  0.00     0.000 S
ATOM     69   O  SGN B   4     -13.719  58.225  16.8970  0.00  0.00     0.000 OA
ATOM     70   O  SGN B   4     -13.306  60.228  15.7030  0.00  0.00     0.000 OA
ATOM     71   O  SGN B   4     -14.134  60.326  17.9480  0.00  0.00     0.000 OA
ENDBRANCH 59 68
BRANCH 62 72
ATOM     72   C  SGN B   4     -18.919  58.876  12.0600  0.00  0.00     0.000 C
ATOM     73   O  SGN B   4     -18.557  58.671  10.7270  0.00  0.00     0.000 O
ATOM     74  @S  SGN B   4     -19.478  58.290   9.5550  0.00  0.00     0.000 S
ATOM     75   O  SGN B   4     -20.469  59.296   9.4520  0.00  0.00     0.000 OA
ATOM     76   O  SGN B   4     -18.607  58.267   8.4180  0.00  0.00     0.000 OA
ATOM     77   O  SGN B   4     -20.048  57.032   9.9020  0.00  0.00     0.000 OA
ENDBRANCH 62 72
BRANCH 58 78
ATOM     78  O4  IDS B   5     -14.890  58.733  13.1690  0.00  0.00     0.000 O
BRANCH 78 82
ATOM     79  C1  IDS B   5     -12.208  57.544  11.3270  0.00  0.00     0.000 C
ATOM     80  C2  IDS B   5     -12.000  57.926  12.7610  0.00  0.00     0.000 C
ATOM     81  C3  IDS B   5     -12.547  59.307  13.1160  0.00  0.00     0.000 C
ATOM     82  C4  IDS B   5     -13.927  59.554  12.5440  0.00  0.00     0.000 C
ATOM     83  C5  IDS B   5     -13.879  59.216  11.0880  0.00  0.00     0.000 C
ATOM     84  O5  IDS B   5     -13.532  57.854  10.9300  0.00  0.00     0.000 O
ATOM     85   O  IDS B   5     -11.678  60.267  12.5660  0.00  0.00     0.000 O
ATOM     87  HD  IDS B   5     -12.535  60.196  12.4660  0.00  0.00     0.000 HD
BRANCH 80 87
ATOM     87   O  IDS B   5     -12.664  57.018  13.5480  0.00  0.00     0.000 O
ATOM     88  @S  IDS B   5     -12.046  56.053  14.5630  0.00  0.00     0.000 S
ATOM     89   O  IDS B   5     -11.254  56.868  15.4110  0.00  0.00     0.000 OA
ATOM     90   O  IDS B   5     -13.146  55.431  15.2110  0.00  0.00     0.000 OA
ATOM     91   O  IDS B   5     -11.279  55.126  13.8060  0.00  0.00     0.000 OA
ENDBRANCH 80 87
BRANCH 83 92
ATOM     92 @CA  IDS B   5     -15.146  59.592  10.3290  0.00  0.00     0.000 C
ATOM     93   O  IDS B   5     -15.672  58.801   9.5420  0.00  0.00     0.000 OA
ATOM     94   O  IDS B   5     -15.668  60.702  10.4850  0.00  0.00     0.000 OA
ENDBRANCH 83 92
BRANCH 79 95
ATOM     95  O4  SGN B   6     -11.260  58.178  10.5360  0.00  0.00     0.000 O
BRANCH 95 99
ATOM     96  C1  SGN B   6     -10.059  57.852   6.5780  0.00  0.00     0.000 C
ATOM     97  C2  SGN B   6     -11.263  58.750   6.8370  0.00  0.00     0.000 C
ATOM     98  C3  SGN B   6     -11.188  59.166   8.3070  0.00  0.00     0.000 C
ATOM     99  C4  SGN B   6     -11.347  57.872   9.1560  0.00  0.00     0.000 C
ATOM    100  C5  SGN B   6     -10.162  56.941   8.7710  0.00  0.00     0.000 C
ATOM    101  O5  SGN B   6     -10.137  56.683   7.3700  0.00  0.00     0.000 O
BRANCH 97 104
ATOM    102   N  SGN B   6     -11.460  59.945   6.0120  0.00  0.00     0.000 N
ATOM    104  HD  SGN B   6     -12.307  60.084   5.8980  0.00  0.00     0.000 HD
ATOM    104 @NS  SGN B   6     -12.173  59.744   4.5270  0.00  0.00     0.000 S
ATOM    105   O  SGN B   6     -12.495  58.341   4.3810  0.00  0.00     0.000 OA
ATOM    106   O  SGN B   6     -13.352  60.579   4.5150  0.00  0.00     0.000 OA
ATOM    107   O  SGN B   6     -11.190  60.161   3.5520  0.00  0.00     0.000 OA
ENDBRANCH 97 104
BRANCH 100 108
ATOM    108   C  SGN B   6     -10.136  55.576   9.4500  0.00  0.00     0.000 C
ATOM    109   O  SGN B   6     -11.299  54.863   9.1100  0.00  0.00     0.000 O
ATOM    110  @S  SGN B   6     -11.668  53.417   9.6020  0.00  0.00     0.000 S
ATOM    111   O  SGN B   6     -11.281  53.360  10.9920  0.00  0.00     0.000 OA
ATOM    112   O  SGN B   6     -13.106  53.279   9.4280  0.00  0.00     0.000 OA
ATOM    113   O  SGN B   6     -10.905  52.514   8.7720  0.00  0.00     0.000 OA
ENDBRANCH 100 108
ENDBRANCH 95 99
ENDBRANCH 79 95
ENDBRANCH 78 82
ENDBRANCH 58 78
ENDBRANCH 57 61
ENDBRANCH 41 57
ENDBRANCH 40 44
ENDBRANCH 20 40
ENDBRANCH 19 23
ENDBRANCH 1 19
TORSDOF 22
ENDMDL
MODEL 25
REMARK VINA RESULT:      -1.8      4.786     13.665
ROOT
ATOM      1  C1  IDS B   1     -23.737  52.054  13.4900  0.00  0.00     0.000 C
ATOM      2  C2  IDS B   1     -23.920  53.351  14.2330  0.00  0.00     0.000 C
ATOM      3  C3  IDS B   1     -23.851  54.640  13.3790  0.00  0.00     0.000 C
ATOM      4  C4  IDS B   1     -24.293  54.432  11.8830  0.00  0.00     0.000 C
ATOM      5  C5  IDS B   1     -24.037  52.991  11.3790  0.00  0.00     0.000 C
ATOM      6  O5  IDS B   1     -24.519  52.062  12.3130  0.00  0.00     0.000 O
ATOM      7   O  IDS B   1     -22.514  55.125  13.4550  0.00  0.00     0.000 O
ATOM      9  HD  IDS B   1     -22.887  55.417  12.7300  0.00  0.00     0.000 HD
ATOM      9   O  IDS B   1     -25.679  54.680  11.8060  0.00  0.00     0.000 O
ATOM     11  HD  IDS B   1     -26.052  54.972  11.0810  0.00  0.00     0.000 HD
ENDROOT
BRANCH 2 11
ATOM     11   O  IDS B   1     -25.158  53.361  14.8570  0.00  0.00     0.000 O
ATOM     12  @S  IDS B   1     -25.373  53.166  16.3700  0.00  0.00     0.000 S
ATOM     13   O  IDS B   1     -24.225  52.385  16.7860  0.00  0.00     0.000 OA
ATOM     14   O  IDS B   1     -25.388  54.492  16.9620  0.00  0.00     0.000 OA
ATOM     15   O  IDS B   1     -26.639  52.475  16.5050  0.00  0.00     0.000 OA
ENDBRANCH 2 11
BRANCH 5 16
ATOM     16 @CA  IDS B   1     -24.569  52.649   9.9910  0.00  0.00     0.000 C
ATOM     17   O  IDS B   1     -25.024  53.512   9.2440  0.00  0.00     0.000 OA
ATOM     18   O  IDS B   1     -24.541  51.491   9.5800  0.00  0.00     0.000 OA
ENDBRANCH 5 16
BRANCH 1 19
ATOM     19  O4  SGN B   2     -22.366  51.916  13.1820  0.00  0.00     0.000 O
BRANCH 19 23
ATOM     20  C1  SGN B   2     -20.065  48.544  12.8890  0.00  0.00     0.000 C
ATOM     21  C2  SGN B   2     -20.576  49.187  11.6180  0.00  0.00     0.000 C
ATOM     22  C3  SGN B   2     -20.853  50.625  11.8700  0.00  0.00     0.000 C
ATOM     23  C4  SGN B   2     -21.960  50.626  12.8990  0.00  0.00     0.000 C
ATOM     24  C5  SGN B   2     -21.347  50.057  14.1320  0.00  0.00     0.000 C
ATOM     25  O5  SGN B   2     -21.028  48.730  13.9160  0.00  0.00     0.000 O
ATOM     26   O  SGN B   2     -21.282  51.225  10.6980  0.00  0.00     0.000 O
ATOM     28  HD  SGN B   2     -21.723  51.592  10.0500  0.00  0.00     0.000 HD
BRANCH 21 30
ATOM     28   N  SGN B   2     -19.435  48.738  10.8750  0.00  0.00     0.000 N
ATOM     30  HD  SGN B   2     -19.456  49.324  10.2380  0.00  0.00     0.000 HD
ATOM     30 @NS  SGN B   2     -19.684  47.558   9.7850  0.00  0.00     0.000 S
ATOM     31   O  SGN B   2     -21.081  47.303   9.6820  0.00  0.00     0.000 OA
ATOM     32   O  SGN B   2     -19.168  48.095   8.5940  0.00  0.00     0.000 OA
ATOM     33   O  SGN B   2     -18.992  46.423  10.2670  0.00  0.00     0.000 OA
ENDBRANCH 21 30
BRANCH 24 34
ATOM     34   C  SGN B   2     -22.202  50.099  15.3450  0.00  0.00     0.000 C
ATOM     35   O  SGN B   2     -22.312  48.806  15.8240  0.00  0.00     0.000 O
ATOM     36  @S  SGN B   2     -22.930  48.459  17.1730  0.00  0.00     0.000 S
ATOM     37   O  SGN B   2     -24.329  48.224  16.8740  0.00  0.00     0.000 OA
ATOM     38   O  SGN B   2     -22.237  47.289  17.6590  0.00  0.00     0.000 OA
ATOM     39   O  SGN B   2     -22.695  49.626  18.0120  0.00  0.00     0.000 OA
ENDBRANCH 24 34
BRANCH 20 40
ATOM     40  O4  IDS B   3     -18.830  49.084  13.2470  0.00  0.00     0.000 O
BRANCH 40 44
ATOM     41  C1  IDS B   3     -15.519  48.490  14.2390  0.00  0.00     0.000 C
ATOM     42  C2  IDS B   3     -16.371  47.360  13.6650  0.00  0.00     0.000 C
ATOM     43  C3  IDS B   3     -17.793  47.236  14.2460  0.00  0.00     0.000 C
ATOM     44  C4  IDS B   3     -18.405  48.603  14.4780  0.00  0.00     0.000 C
ATOM     45  C5  IDS B   3     -17.406  49.584  15.1110  0.00  0.00     0.000 C
ATOM     46  O5  IDS B   3     -16.274  49.689  14.3260  0.00  0.00     0.000 O
ATOM     47   O  IDS B   3     -17.734  46.561  15.4850  0.00  0.00     0.000 O
ATOM     49  HD  IDS B   3     -18.100  46.831  14.7480  0.00  0.00     0.000 HD
BRANCH 42 49
ATOM     49   O  IDS B   3     -16.505  47.560  12.2870  0.00  0.00     0.000 O
ATOM     50   O  IDS B   3     -14.290  46.851  11.9170  0.00  0.00     0.000 OA
ATOM     51   O  IDS B   3     -15.975  46.217  10.3790  0.00  0.00     0.000 OA
ATOM     52   O  IDS B   3     -15.293  48.471  10.5370  0.00  0.00     0.000 OA
ATOM     53  @S  IDS B   3     -15.455  47.252  11.2170  0.00  0.00     0.000 S
ENDBRANCH 42 49
BRANCH 45 54
ATOM     54 @CA  IDS B   3     -17.956  50.976  15.4100  0.00  0.00     0.000 C
ATOM     55   O  IDS B   3     -17.695  51.920  14.7140  0.00  0.00     0.000 OA
ATOM     56   O  IDS B   3     -18.681  51.169  16.3290  0.00  0.00     0.000 OA
ENDBRANCH 45 54
BRANCH 41 57
ATOM     57  O4  SGN B   4     -15.013  48.110  15.4760  0.00  0.00     0.000 O
BRANCH 57 61
ATOM     58  C1  SGN B   4     -12.415  51.255  16.0690  0.00  0.00     0.000 C
ATOM     59  C2  SGN B   4     -11.994  50.247  15.0140  0.00  0.00     0.000 C
ATOM     60  C3  SGN B   4     -13.188  49.381  14.6200  0.00  0.00     0.000 C
ATOM     61  C4  SGN B   4     -13.809  48.706  15.8480  0.00  0.00     0.000 C
ATOM     62  C5  SGN B   4     -14.109  49.792  16.8780  0.00  0.00     0.000 C
ATOM     63  O5  SGN B   4     -12.952  50.551  17.1760  0.00  0.00     0.000 O
ATOM     64   O  SGN B   4     -12.748  48.377  13.7300  0.00  0.00     0.000 O
ATOM     66  HD  SGN B   4     -12.864  47.558  13.9860  0.00  0.00     0.000 HD
BRANCH 59 68
ATOM     66   N  SGN B   4     -10.577  50.354  14.7360  0.00  0.00     0.000 N
ATOM     68  HD  SGN B   4     -11.102  50.441  15.4200  0.00  0.00     0.000 HD
ATOM     68 @NS  SGN B   4      -9.994  51.659  13.9320  0.00  0.00     0.000 S
ATOM     69   O  SGN B   4     -10.943  52.026  12.9220  0.00  0.00     0.000 OA
ATOM     70   O  SGN B   4      -9.848  52.698  14.9110  0.00  0.00     0.000 OA
ATOM     71   O  SGN B   4      -8.749  51.213  13.3870  0.00  0.00     0.000 OA
ENDBRANCH 59 68
BRANCH 62 72
ATOM     72   C  SGN B   4     -14.614  49.230  18.1990  0.00  0.00     0.000 C
ATOM     73   O  SGN B   4     -15.970  49.561  18.2510  0.00  0.00     0.000 O
ATOM     74  @S  SGN B   4     -17.102  48.768  18.9280  0.00  0.00     0.000 S
ATOM     75   O  SGN B   4     -16.765  48.635  20.2970  0.00  0.00     0.000 OA
ATOM     76   O  SGN B   4     -18.265  49.579  18.7310  0.00  0.00     0.000 OA
ATOM     77   O  SGN B   4     -17.133  47.502  18.2750  0.00  0.00     0.000 OA
ENDBRANCH 62 72
BRANCH 58 78
ATOM     78  O4  IDS B   5     -13.336  52.177  15.5230  0.00  0.00     0.000 O
BRANCH 78 82
ATOM     79  C1  IDS B   5     -15.292  54.832  14.4620  0.00  0.00     0.000 C
ATOM     80  C2  IDS B   5     -13.934  54.637  13.8610  0.00  0.00     0.000 C
ATOM     81  C3  IDS B   5     -12.824  54.450  14.8920  0.00  0.00     0.000 C
ATOM     82  C4  IDS B   5     -13.214  53.498  16.0040  0.00  0.00     0.000 C
ATOM     83  C5  IDS B   5     -14.540  53.942  16.5330  0.00  0.00     0.000 C
ATOM     84  O5  IDS B   5     -15.504  53.890  15.4980  0.00  0.00     0.000 O
ATOM     85   O  IDS B   5     -12.564  55.704  15.4750  0.00  0.00     0.000 O
ATOM     87  HD  IDS B   5     -12.754  54.956  15.8680  0.00  0.00     0.000 HD
BRANCH 80 87
ATOM     87   O  IDS B   5     -13.963  53.499  13.0930  0.00  0.00     0.000 O
ATOM     88  @S  IDS B   5     -14.107  53.417  11.5720  0.00  0.00     0.000 S
ATOM     89   O  IDS B   5     -13.088  54.260  11.0600  0.00  0.00     0.000 OA
ATOM     90   O  IDS B   5     -13.943  52.043  11.2510  0.00  0.00     0.000 OA
ATOM     91   O  IDS B   5     -15.417  53.882  11.2750  0.00  0.00     0.000 OA
ENDBRANCH 80 87
BRANCH 83 92
ATOM     92 @CA  IDS B   5     -14.983  53.195  17.7860  0.00  0.00     0.000 C
ATOM     93   O  IDS B   5     -14.223  53.064  18.7480  0.00  0.00     0.000 OA
ATOM     94   O  IDS B   5     -16.115  52.702  17.8570  0.00  0.00     0.000 OA
ENDBRANCH 83 92
BRANCH 79 95
ATOM     95  O4  SGN B   6     -15.418  56.141  14.9090  0.00  0.00     0.000 O
BRANCH 95 99
ATOM     96  C1  SGN B   6     -18.489  58.352  16.6090  0.00  0.00     0.000 C
ATOM     97  C2  SGN B   6     -18.441  56.876  16.9880  0.00  0.00     0.000 C
ATOM     98  C3  SGN B   6     -17.007  56.409  16.7400  0.00  0.00     0.000 C
ATOM     99  C4  SGN B   6     -16.745  56.533  15.2120  0.00  0.00     0.000 C
ATOM    100  C5  SGN B   6     -16.920  58.036  14.8520  0.00  0.00     0.000 C
ATOM    101  O5  SGN B   6     -18.206  58.516  15.2330  0.00  0.00     0.000 O
BRANCH 97 104
ATOM    102   N  SGN B   6     -19.326  57.344  18.0600  0.00  0.00     0.000 N
ATOM    104  HD  SGN B   6     -19.192  56.874  18.7740  0.00  0.00     0.000 HD
ATOM    104 @NS  SGN B   6     -20.476  56.289  18.6230  0.00  0.00     0.000 S
ATOM    105   O  SGN B   6     -20.317  55.043  17.9050  0.00  0.00     0.000 OA
ATOM    106   O  SGN B   6     -20.242  56.136  20.0400  0.00  0.00     0.000 OA
ATOM    107   O  SGN B   6     -21.754  56.901  18.3360  0.00  0.00     0.000 OA
ENDBRANCH 97 104
BRANCH 100 108
ATOM    108   C  SGN B   6     -16.757  58.396  13.3800  0.00  0.00     0.000 C
ATOM    109   O  SGN B   6     -18.020  58.662  12.8220  0.00  0.00     0.000 O
ATOM    110  @S  SGN B   6     -18.300  59.063  11.3280  0.00  0.00     0.000 S
ATOM    111   O  SGN B   6     -17.419  58.248  10.5270  0.00  0.00     0.000 OA
ATOM    112   O  SGN B   6     -19.701  58.766  11.0780  0.00  0.00     0.000 OA
ATOM    113   O  SGN B   6     -17.993  60.473  11.2380  0.00  0.00     0.000 OA
ENDBRANCH 100 108
ENDBRANCH 95 99
ENDBRANCH 79 95
ENDBRANCH 78 82
ENDBRANCH 58 78
ENDBRANCH 57 61
ENDBRANCH 41 57
ENDBRANCH 40 44
ENDBRANCH 20 40
ENDBRANCH 19 23
ENDBRANCH 1 19
TORSDOF 22
ENDMDL
MODEL 26
REMARK VINA RESULT:      -1.8      4.250      8.877
ROOT
ATOM      1  C1  IDS B   1     -16.730  55.592  17.0080  0.00  0.00     0.000 C
ATOM      2  C2  IDS B   1     -16.542  56.825  16.1630  0.00  0.00     0.000 C
ATOM      3  C3  IDS B   1     -17.808  57.681  15.9180  0.00  0.00     0.000 C
ATOM      4  C4  IDS B   1     -18.874  57.578  17.0710  0.00  0.00     0.000 C
ATOM      5  C5  IDS B   1     -18.822  56.221  17.8140  0.00  0.00     0.000 C
ATOM      6  O5  IDS B   1     -17.498  55.908  18.1520  0.00  0.00     0.000 O
ATOM      7   O  IDS B   1     -18.361  57.269  14.6720  0.00  0.00     0.000 O
ATOM      9  HD  IDS B   1     -18.981  57.624  15.1600  0.00  0.00     0.000 HD
ATOM      9   O  IDS B   1     -18.595  58.597  18.0050  0.00  0.00     0.000 O
ATOM     11  HD  IDS B   1     -19.215  58.952  18.4940  0.00  0.00     0.000 HD
ENDROOT
BRANCH 2 11
ATOM     11   O  IDS B   1     -15.613  57.662  16.7600  0.00  0.00     0.000 O
ATOM     12  @S  IDS B   1     -14.281  58.088  16.1120  0.00  0.00     0.000 S
ATOM     13   O  IDS B   1     -13.977  57.004  15.2000  0.00  0.00     0.000 OA
ATOM     14   O  IDS B   1     -14.536  59.341  15.4230  0.00  0.00     0.000 OA
ATOM     15   O  IDS B   1     -13.337  58.228  17.2030  0.00  0.00     0.000 OA
ENDBRANCH 2 11
BRANCH 5 16
ATOM     16 @CA  IDS B   1     -19.714  56.083  19.0440  0.00  0.00     0.000 C
ATOM     17   O  IDS B   1     -20.011  57.053  19.7380  0.00  0.00     0.000 OA
ATOM     18   O  IDS B   1     -20.170  54.987  19.3630  0.00  0.00     0.000 OA
ENDBRANCH 5 16
BRANCH 1 19
ATOM     19  O4  SGN B   2     -17.380  54.617  16.2200  0.00  0.00     0.000 O
BRANCH 19 23
ATOM     20  C1  SGN B   2     -16.997  50.549  15.9650  0.00  0.00     0.000 C
ATOM     21  C2  SGN B   2     -17.067  51.188  17.3340  0.00  0.00     0.000 C
ATOM     22  C3  SGN B   2     -17.766  52.496  17.2340  0.00  0.00     0.000 C
ATOM     23  C4  SGN B   2     -16.876  53.336  16.3470  0.00  0.00     0.000 C
ATOM     24  C5  SGN B   2     -16.932  52.685  15.0090  0.00  0.00     0.000 C
ATOM     25  O5  SGN B   2     -16.336  51.441  15.0780  0.00  0.00     0.000 O
ATOM     26   O  SGN B   2     -17.868  53.062  18.4930  0.00  0.00     0.000 O
ATOM     28  HD  SGN B   2     -17.791  53.532  19.2170  0.00  0.00     0.000 HD
BRANCH 21 30
ATOM     28   N  SGN B   2     -16.313  50.003  17.6250  0.00  0.00     0.000 N
ATOM     30  HD  SGN B   2     -16.731  49.452  17.1040  0.00  0.00     0.000 HD
ATOM     30 @NS  SGN B   2     -16.782  49.128  18.9110  0.00  0.00     0.000 S
ATOM     31   O  SGN B   2     -17.999  49.664  19.4240  0.00  0.00     0.000 OA
ATOM     32   O  SGN B   2     -16.969  47.839  18.3830  0.00  0.00     0.000 OA
ATOM     33   O  SGN B   2     -15.740  49.230  19.8610  0.00  0.00     0.000 OA
ENDBRANCH 21 30
BRANCH 24 34
ATOM     34   C  SGN B   2     -16.255  53.424  13.9140  0.00  0.00     0.000 C
ATOM     35   O  SGN B   2     -15.852  52.496  12.9710  0.00  0.00     0.000 O
ATOM     36  @S  SGN B   2     -15.311  52.874  11.5970  0.00  0.00     0.000 S
ATOM     37   O  SGN B   2     -13.877  52.961  11.7900  0.00  0.00     0.000 OA
ATOM     38   O  SGN B   2     -15.709  51.823  10.6900  0.00  0.00     0.000 OA
ATOM     39   O  SGN B   2     -15.940  54.147  11.2760  0.00  0.00     0.000 OA
ENDBRANCH 24 34
BRANCH 20 40
ATOM     40  O4  IDS B   3     -18.276  50.233  15.5070  0.00  0.00     0.000 O
BRANCH 40 44
ATOM     41  C1  IDS B   3     -20.849  48.068  14.5090  0.00  0.00     0.000 C
ATOM     42  C2  IDS B   3     -19.774  47.597  15.4870  0.00  0.00     0.000 C
ATOM     43  C3  IDS B   3     -18.322  47.927  15.0920  0.00  0.00     0.000 C
ATOM     44  C4  IDS B   3     -18.229  49.308  14.4730  0.00  0.00     0.000 C
ATOM     45  C5  IDS B   3     -19.368  49.572  13.4760  0.00  0.00     0.000 C
ATOM     46  O5  IDS B   3     -20.593  49.401  14.0920  0.00  0.00     0.000 O
ATOM     47   O  IDS B   3     -17.869  46.984  14.1430  0.00  0.00     0.000 O
ATOM     49  HD  IDS B   3     -17.790  47.569  14.7770  0.00  0.00     0.000 HD
BRANCH 42 49
ATOM     49   O  IDS B   3     -20.010  48.197  16.7290  0.00  0.00     0.000 O
ATOM     50   O  IDS B   3     -21.625  46.568  17.2660  0.00  0.00     0.000 OA
ATOM     51   O  IDS B   3     -20.159  47.339  18.9580  0.00  0.00     0.000 OA
ATOM     52   O  IDS B   3     -21.810  48.772  18.0670  0.00  0.00     0.000 OA
ATOM     53  @S  IDS B   3     -20.954  47.686  17.8210  0.00  0.00     0.000 S
ENDBRANCH 42 49
BRANCH 45 54
ATOM     54 @CA  IDS B   3     -19.327  50.931  12.7810  0.00  0.00     0.000 C
ATOM     55   O  IDS B   3     -19.915  51.882  13.2210  0.00  0.00     0.000 OA
ATOM     56   O  IDS B   3     -18.693  51.099  11.7930  0.00  0.00     0.000 OA
ENDBRANCH 45 54
BRANCH 41 57
ATOM     57  O4  SGN B   4     -20.911  47.195  13.4290  0.00  0.00     0.000 O
BRANCH 57 61
ATOM     58  C1  SGN B   4     -24.623  48.407  12.1080  0.00  0.00     0.000 C
ATOM     59  C2  SGN B   4     -24.627  47.431  13.2730  0.00  0.00     0.000 C
ATOM     60  C3  SGN B   4     -23.240  47.374  13.9040  0.00  0.00     0.000 C
ATOM     61  C4  SGN B   4     -22.172  47.022  12.8620  0.00  0.00     0.000 C
ATOM     62  C5  SGN B   4     -22.314  48.001  11.6990  0.00  0.00     0.000 C
ATOM     63  O5  SGN B   4     -23.631  47.997  11.1810  0.00  0.00     0.000 O
ATOM     64   O  SGN B   4     -23.236  46.376  14.9050  0.00  0.00     0.000 O
ATOM     66  HD  SGN B   4     -22.676  45.725  14.7970  0.00  0.00     0.000 HD
BRANCH 59 68
ATOM     66   N  SGN B   4     -25.920  46.792  13.4090  0.00  0.00     0.000 N
ATOM     68  HD  SGN B   4     -25.414  47.077  12.7670  0.00  0.00     0.000 HD
ATOM     68 @NS  SGN B   4     -27.212  47.657  13.9310  0.00  0.00     0.000 S
ATOM     69   O  SGN B   4     -26.765  48.570  14.9400  0.00  0.00     0.000 OA
ATOM     70   O  SGN B   4     -27.715  48.354  12.7820  0.00  0.00     0.000 OA
ATOM     71   O  SGN B   4     -28.117  46.671  14.4380  0.00  0.00     0.000 OA
ENDBRANCH 59 68
BRANCH 62 72
ATOM     72   C  SGN B   4     -21.388  47.675  10.5370  0.00  0.00     0.000 C
ATOM     73   O  SGN B   4     -20.092  47.830  11.0360  0.00  0.00     0.000 O
ATOM     74  @S  SGN B   4     -18.829  47.059  10.6140  0.00  0.00     0.000 S
ATOM     75   O  SGN B   4     -18.649  47.270   9.2260  0.00  0.00     0.000 OA
ATOM     76   O  SGN B   4     -17.782  47.649  11.3930  0.00  0.00     0.000 OA
ATOM     77   O  SGN B   4     -19.095  45.690  10.9020  0.00  0.00     0.000 OA
ENDBRANCH 62 72
BRANCH 58 78
ATOM     78  O4  IDS B   5     -24.409  49.723  12.5750  0.00  0.00     0.000 O
BRANCH 78 82
ATOM     79  C1  IDS B   5     -24.471  53.063  13.4920  0.00  0.00     0.000 C
ATOM     80  C2  IDS B   5     -25.594  52.166  13.9170  0.00  0.00     0.000 C
ATOM     81  C3  IDS B   5     -26.188  51.341  12.7780  0.00  0.00     0.000 C
ATOM     82  C4  IDS B   5     -25.129  50.724  11.8880  0.00  0.00     0.000 C
ATOM     83  C5  IDS B   5     -24.183  51.812  11.4920  0.00  0.00     0.000 C
ATOM     84  O5  IDS B   5     -23.578  52.357  12.6500  0.00  0.00     0.000 O
ATOM     85   O  IDS B   5     -26.964  52.204  11.9820  0.00  0.00     0.000 O
ATOM     87  HD  IDS B   5     -26.324  51.675  11.7370  0.00  0.00     0.000 HD
BRANCH 80 87
ATOM     87   O  IDS B   5     -25.106  51.277  14.8420  0.00  0.00     0.000 O
ATOM     88  @S  IDS B   5     -24.923  51.517  16.3430  0.00  0.00     0.000 S
ATOM     89   O  IDS B   5     -26.186  51.972  16.8000  0.00  0.00     0.000 OA
ATOM     90   O  IDS B   5     -24.525  50.264  16.8800  0.00  0.00     0.000 OA
ATOM     91   O  IDS B   5     -23.901  52.497  16.4620  0.00  0.00     0.000 OA
ENDBRANCH 80 87
BRANCH 83 92
ATOM     92 @CA  IDS B   5     -23.164  51.387  10.4420  0.00  0.00     0.000 C
ATOM     93   O  IDS B   5     -22.000  51.792  10.4870  0.00  0.00     0.000 OA
ATOM     94   O  IDS B   5     -23.489  50.629   9.5200  0.00  0.00     0.000 OA
ENDBRANCH 83 92
BRANCH 79 95
ATOM     95  O4  SGN B   6     -24.990  54.195  12.8760  0.00  0.00     0.000 O
BRANCH 95 99
ATOM     96  C1  SGN B   6     -23.480  57.821  11.5410  0.00  0.00     0.000 C
ATOM     97  C2  SGN B   6     -22.734  56.576  11.0760  0.00  0.00     0.000 C
ATOM     98  C3  SGN B   6     -23.717  55.410  11.1880  0.00  0.00     0.000 C
ATOM     99  C4  SGN B   6     -24.057  55.245  12.6970  0.00  0.00     0.000 C
ATOM    100  C5  SGN B   6     -24.710  56.581  13.1540  0.00  0.00     0.000 C
ATOM    101  O5  SGN B   6     -23.855  57.691  12.8990  0.00  0.00     0.000 O
BRANCH 97 104
ATOM    102   N  SGN B   6     -21.295  56.856  11.0320  0.00  0.00     0.000 N
ATOM    104  HD  SGN B   6     -21.167  57.687  10.8220  0.00  0.00     0.000 HD
ATOM    104 @NS  SGN B   6     -20.639  57.281   9.5680  0.00  0.00     0.000 S
ATOM    105   O  SGN B   6     -21.713  57.316   8.6000  0.00  0.00     0.000 OA
ATOM    106   O  SGN B   6     -20.024  58.575   9.7480  0.00  0.00     0.000 OA
ATOM    107   O  SGN B   6     -19.676  56.251   9.2490  0.00  0.00     0.000 OA
ENDBRANCH 97 104
BRANCH 100 108
ATOM    108   C  SGN B   6     -25.087  56.672  14.6280  0.00  0.00     0.000 C
ATOM    109   O  SGN B   6     -23.929  56.546  15.4150  0.00  0.00     0.000 O
ATOM    110  @S  SGN B   6     -23.876  56.578  16.9850  0.00  0.00     0.000 S
ATOM    111   O  SGN B   6     -25.025  55.830  17.4360  0.00  0.00     0.000 OA
ATOM    112   O  SGN B   6     -22.625  55.943  17.3680  0.00  0.00     0.000 OA
ATOM    113   O  SGN B   6     -23.940  57.975  17.3510  0.00  0.00     0.000 OA
ENDBRANCH 100 108
ENDBRANCH 95 99
ENDBRANCH 79 95
ENDBRANCH 78 82
ENDBRANCH 58 78
ENDBRANCH 57 61
ENDBRANCH 41 57
ENDBRANCH 40 44
ENDBRANCH 20 40
ENDBRANCH 19 23
ENDBRANCH 1 19
TORSDOF 22
ENDMDL
MODEL 27
REMARK VINA RESULT:      -1.7      3.707      8.568
ROOT
ATOM      1  C1  IDS B   1     -17.032  57.345  13.8830  0.00  0.00     0.000 C
ATOM      2  C2  IDS B   1     -17.596  58.125  15.0420  0.00  0.00     0.000 C
ATOM      3  C3  IDS B   1     -16.909  57.901  16.4110  0.00  0.00     0.000 C
ATOM      4  C4  IDS B   1     -15.392  57.496  16.2990  0.00  0.00     0.000 C
ATOM      5  C5  IDS B   1     -15.070  56.744  14.9840  0.00  0.00     0.000 C
ATOM      6  O5  IDS B   1     -15.621  57.428  13.8910  0.00  0.00     0.000 O
ATOM      7   O  IDS B   1     -17.656  56.903  17.1000  0.00  0.00     0.000 O
ATOM      9  HD  IDS B   1     -16.845  56.919  17.4040  0.00  0.00     0.000 HD
ATOM      9   O  IDS B   1     -14.629  58.681  16.3200  0.00  0.00     0.000 O
ATOM     11  HD  IDS B   1     -13.818  58.697  16.6240  0.00  0.00     0.000 HD
ENDROOT
BRANCH 2 11
ATOM     11   O  IDS B   1     -17.508  59.482  14.7770  0.00  0.00     0.000 O
ATOM     12  @S  IDS B   1     -17.847  60.592  15.7920  0.00  0.00     0.000 S
ATOM     13   O  IDS B   1     -18.803  59.967  16.6830  0.00  0.00     0.000 OA
ATOM     14   O  IDS B   1     -16.605  60.938  16.4600  0.00  0.00     0.000 OA
ATOM     15   O  IDS B   1     -18.391  61.687  15.0130  0.00  0.00     0.000 OA
ENDBRANCH 2 11
BRANCH 5 16
ATOM     16 @CA  IDS B   1     -13.600  56.442  14.7150  0.00  0.00     0.000 C
ATOM     17   O  IDS B   1     -12.755  56.500  15.6050  0.00  0.00     0.000 OA
ATOM     18   O  IDS B   1     -13.226  56.116  13.5900  0.00  0.00     0.000 OA
ENDBRANCH 5 16
BRANCH 1 19
ATOM     19  O4  SGN B   2     -17.458  56.005  14.0100  0.00  0.00     0.000 O
BRANCH 19 23
ATOM     20  C1  SGN B   2     -17.579  53.039  11.1910  0.00  0.00     0.000 C
ATOM     21  C2  SGN B   2     -16.468  53.020  12.2180  0.00  0.00     0.000 C
ATOM     22  C3  SGN B   2     -16.904  53.761  13.4310  0.00  0.00     0.000 C
ATOM     23  C4  SGN B   2     -17.109  55.181  12.9570  0.00  0.00     0.000 C
ATOM     24  C5  SGN B   2     -18.266  55.118  12.0210  0.00  0.00     0.000 C
ATOM     25  O5  SGN B   2     -17.911  54.389  10.9020  0.00  0.00     0.000 O
ATOM     26   O  SGN B   2     -15.904  53.710  14.3870  0.00  0.00     0.000 O
ATOM     28  HD  SGN B   2     -15.249  53.861  14.9320  0.00  0.00     0.000 HD
BRANCH 21 30
ATOM     28   N  SGN B   2     -15.921  52.285  11.1150  0.00  0.00     0.000 N
ATOM     30  HD  SGN B   2     -16.610  51.792  10.9330  0.00  0.00     0.000 HD
ATOM     30 @NS  SGN B   2     -15.070  50.948  11.4700  0.00  0.00     0.000 S
ATOM     31   O  SGN B   2     -15.171  50.685  12.8670  0.00  0.00     0.000 OA
ATOM     32   O  SGN B   2     -15.696  49.946  10.7110  0.00  0.00     0.000 OA
ATOM     33   O  SGN B   2     -13.733  51.220  11.0980  0.00  0.00     0.000 OA
ENDBRANCH 21 30
BRANCH 24 34
ATOM     34   C  SGN B   2     -18.765  56.429  11.5370  0.00  0.00     0.000 C
ATOM     35   O  SGN B   2     -19.193  56.258  10.2330  0.00  0.00     0.000 O
ATOM     36  @S  SGN B   2     -19.969  57.316   9.4570  0.00  0.00     0.000 S
ATOM     37   O  SGN B   2     -18.944  58.084   8.7790  0.00  0.00     0.000 OA
ATOM     38   O  SGN B   2     -20.851  56.608   8.5590  0.00  0.00     0.000 OA
ATOM     39   O  SGN B   2     -20.700  58.070  10.4660  0.00  0.00     0.000 OA
ENDBRANCH 24 34
BRANCH 20 40
ATOM     40  O4  IDS B   3     -18.687  52.333  11.6580  0.00  0.00     0.000 O
BRANCH 40 44
ATOM     41  C1  IDS B   3     -21.057  49.749  11.7580  0.00  0.00     0.000 C
ATOM     42  C2  IDS B   3     -19.632  49.476  11.2800  0.00  0.00     0.000 C
ATOM     43  C3  IDS B   3     -19.065  50.487  10.2650  0.00  0.00     0.000 C
ATOM     44  C4  IDS B   3     -19.490  51.900  10.6110  0.00  0.00     0.000 C
ATOM     45  C5  IDS B   3     -20.970  51.975  11.0150  0.00  0.00     0.000 C
ATOM     46  O5  IDS B   3     -21.223  51.123  12.0730  0.00  0.00     0.000 O
ATOM     47   O  IDS B   3     -19.554  50.180   8.9760  0.00  0.00     0.000 O
ATOM     49  HD  IDS B   3     -18.997  50.505   9.5540  0.00  0.00     0.000 HD
BRANCH 42 49
ATOM     49   O  IDS B   3     -18.781  49.486  12.3910  0.00  0.00     0.000 O
ATOM     50   O  IDS B   3     -19.224  47.212  12.8130  0.00  0.00     0.000 OA
ATOM     51   O  IDS B   3     -17.025  48.033  13.1180  0.00  0.00     0.000 OA
ATOM     52   O  IDS B   3     -18.759  48.706  14.5700  0.00  0.00     0.000 OA
ATOM     53  @S  IDS B   3     -18.423  48.287  13.2720  0.00  0.00     0.000 S
ENDBRANCH 42 49
BRANCH 45 54
ATOM     54 @CA  IDS B   3     -21.487  53.374  11.3470  0.00  0.00     0.000 C
ATOM     55   O  IDS B   3     -21.798  54.152  10.4860  0.00  0.00     0.000 OA
ATOM     56   O  IDS B   3     -21.621  53.731  12.4700  0.00  0.00     0.000 OA
ENDBRANCH 45 54
BRANCH 41 57
ATOM     57  O4  SGN B   4     -21.961  49.330  10.7890  0.00  0.00     0.000 O
BRANCH 57 61
ATOM     58  C1  SGN B   4     -25.281  49.513  13.2270  0.00  0.00     0.000 C
ATOM     59  C2  SGN B   4     -24.441  48.253  13.3550  0.00  0.00     0.000 C
ATOM     60  C3  SGN B   4     -23.073  48.476  12.7170  0.00  0.00     0.000 C
ATOM     61  C4  SGN B   4     -23.211  48.931  11.2590  0.00  0.00     0.000 C
ATOM     62  C5  SGN B   4     -24.143  50.140  11.2330  0.00  0.00     0.000 C
ATOM     63  O5  SGN B   4     -25.381  49.848  11.8530  0.00  0.00     0.000 O
ATOM     64   O  SGN B   4     -22.356  47.259  12.7420  0.00  0.00     0.000 O
ATOM     66  HD  SGN B   4     -22.116  46.939  11.9740  0.00  0.00     0.000 HD
BRANCH 59 68
ATOM     66   N  SGN B   4     -25.098  47.143  14.0140  0.00  0.00     0.000 N
ATOM     68  HD  SGN B   4     -25.299  47.745  13.4250  0.00  0.00     0.000 HD
ATOM     68 @NS  SGN B   4     -25.574  47.282  15.5780  0.00  0.00     0.000 S
ATOM     69   O  SGN B   4     -24.581  48.036  16.2840  0.00  0.00     0.000 OA
ATOM     70   O  SGN B   4     -26.832  47.970  15.5530  0.00  0.00     0.000 OA
ATOM     71   O  SGN B   4     -25.673  45.930  16.0390  0.00  0.00     0.000 OA
ENDBRANCH 59 68
BRANCH 62 72
ATOM     72   C  SGN B   4     -24.462  50.610   9.8210  0.00  0.00     0.000 C
ATOM     73   O  SGN B   4     -25.782  50.220   9.5860  0.00  0.00     0.000 O
ATOM     74  @S  SGN B   4     -26.824  50.929   8.7040  0.00  0.00     0.000 S
ATOM     75   O  SGN B   4     -26.289  51.003   7.3950  0.00  0.00     0.000 OA
ATOM     76   O  SGN B   4     -27.976  50.081   8.7720  0.00  0.00     0.000 OA
ATOM     77   O  SGN B   4     -26.995  52.224   9.2690  0.00  0.00     0.000 OA
ENDBRANCH 62 72
BRANCH 58 78
ATOM     78  O4  IDS B   5     -24.716  50.556  13.9940  0.00  0.00     0.000 O
BRANCH 78 82
ATOM     79  C1  IDS B   5     -24.008  53.638  15.4080  0.00  0.00     0.000 C
ATOM     80  C2  IDS B   5     -23.946  52.408  16.2620  0.00  0.00     0.000 C
ATOM     81  C3  IDS B   5     -25.183  51.521  16.1560  0.00  0.00     0.000 C
ATOM     82  C4  IDS B   5     -25.643  51.328  14.7250  0.00  0.00     0.000 C
ATOM     83  C5  IDS B   5     -25.744  52.682  14.0980  0.00  0.00     0.000 C
ATOM     84  O5  IDS B   5     -24.474  53.305  14.1120  0.00  0.00     0.000 O
ATOM     85   O  IDS B   5     -26.227  52.153  16.8580  0.00  0.00     0.000 O
ATOM     87  HD  IDS B   5     -26.222  51.868  16.0400  0.00  0.00     0.000 HD
BRANCH 80 87
ATOM     87   O  IDS B   5     -22.876  51.653  15.8510  0.00  0.00     0.000 O
ATOM     88  @S  IDS B   5     -21.782  51.048  16.7350  0.00  0.00     0.000 S
ATOM     89   O  IDS B   5     -22.477  50.314  17.7300  0.00  0.00     0.000 OA
ATOM     90   O  IDS B   5     -20.992  50.250  15.8650  0.00  0.00     0.000 OA
ATOM     91   O  IDS B   5     -21.051  52.147  17.2620  0.00  0.00     0.000 OA
ENDBRANCH 80 87
BRANCH 83 92
ATOM     92 @CA  IDS B   5     -26.376  52.669  12.7110  0.00  0.00     0.000 C
ATOM     93   O  IDS B   5     -25.783  53.143  11.7390  0.00  0.00     0.000 OA
ATOM     94   O  IDS B   5     -27.501  52.187  12.5360  0.00  0.00     0.000 OA
ENDBRANCH 83 92
BRANCH 79 95
ATOM     95  O4  SGN B   6     -24.806  54.592  16.0250  0.00  0.00     0.000 O
BRANCH 95 99
ATOM     96  C1  SGN B   6     -26.075  58.425  15.0740  0.00  0.00     0.000 C
ATOM     97  C2  SGN B   6     -26.039  57.430  13.9200  0.00  0.00     0.000 C
ATOM     98  C3  SGN B   6     -26.100  56.036  14.5450  0.00  0.00     0.000 C
ATOM     99  C4  SGN B   6     -24.807  55.858  15.3900  0.00  0.00     0.000 C
ATOM    100  C5  SGN B   6     -24.831  56.967  16.4800  0.00  0.00     0.000 C
ATOM    101  O5  SGN B   6     -24.938  58.264  15.8990  0.00  0.00     0.000 O
BRANCH 97 104
ATOM    102   N  SGN B   6     -25.923  58.617  13.0670  0.00  0.00     0.000 N
ATOM    104  HD  SGN B   6     -26.691  59.015  13.0170  0.00  0.00     0.000 HD
ATOM    104 @NS  SGN B   6     -26.792  58.634  11.6530  0.00  0.00     0.000 S
ATOM    105   O  SGN B   6     -27.550  57.404  11.5890  0.00  0.00     0.000 OA
ATOM    106   O  SGN B   6     -27.645  59.799  11.7040  0.00  0.00     0.000 OA
ATOM    107   O  SGN B   6     -25.818  58.708  10.5870  0.00  0.00     0.000 OA
ENDBRANCH 97 104
BRANCH 100 108
ATOM    108   C  SGN B   6     -23.623  57.022  17.4080  0.00  0.00     0.000 C
ATOM    109   O  SGN B   6     -22.504  56.482  16.7490  0.00  0.00     0.000 O
ATOM    110  @S  SGN B   6     -21.060  56.344  17.3540  0.00  0.00     0.000 S
ATOM    111   O  SGN B   6     -21.242  55.929  18.7240  0.00  0.00     0.000 OA
ATOM    112   O  SGN B   6     -20.378  55.333  16.5620  0.00  0.00     0.000 OA
ATOM    113   O  SGN B   6     -20.461  57.655  17.2410  0.00  0.00     0.000 OA
ENDBRANCH 100 108
ENDBRANCH 95 99
ENDBRANCH 79 95
ENDBRANCH 78 82
ENDBRANCH 58 78
ENDBRANCH 57 61
ENDBRANCH 41 57
ENDBRANCH 40 44
ENDBRANCH 20 40
ENDBRANCH 19 23
ENDBRANCH 1 19
TORSDOF 22
ENDMDL
MODEL 28
REMARK VINA RESULT:      -1.6      4.676     10.509
ROOT
ATOM      1  C1  IDS B   1     -15.297  57.453  14.5660  0.00  0.00     0.000 C
ATOM      2  C2  IDS B   1     -16.514  57.955  15.2980  0.00  0.00     0.000 C
ATOM      3  C3  IDS B   1     -16.412  57.995  16.8410  0.00  0.00     0.000 C
ATOM      4  C4  IDS B   1     -14.943  58.190  17.3730  0.00  0.00     0.000 C
ATOM      5  C5  IDS B   1     -13.877  57.624  16.4030  0.00  0.00     0.000 C
ATOM      6  O5  IDS B   1     -14.136  58.059  15.0960  0.00  0.00     0.000 O
ATOM      7   O  IDS B   1     -16.978  56.784  17.3330  0.00  0.00     0.000 O
ATOM      9  HD  IDS B   1     -16.421  57.101  17.9160  0.00  0.00     0.000 HD
ATOM      9   O  IDS B   1     -14.716  59.575  17.5090  0.00  0.00     0.000 O
ATOM     11  HD  IDS B   1     -14.160  59.892  18.0910  0.00  0.00     0.000 HD
ENDROOT
BRANCH 2 11
ATOM     11   O  IDS B   1     -16.803  59.247  14.8900  0.00  0.00     0.000 O
ATOM     12  @S  IDS B   1     -17.914  60.126  15.4980  0.00  0.00     0.000 S
ATOM     13   O  IDS B   1     -18.875  59.167  16.0050  0.00  0.00     0.000 OA
ATOM     14   O  IDS B   1     -17.295  60.907  16.5550  0.00  0.00     0.000 OA
ATOM     15   O  IDS B   1     -18.411  60.944  14.4110  0.00  0.00     0.000 OA
ENDBRANCH 2 11
BRANCH 5 16
ATOM     16 @CA  IDS B   1     -12.419  57.898  16.7580  0.00  0.00     0.000 C
ATOM     17   O  IDS B   1     -11.952  59.035  16.7350  0.00  0.00     0.000 OA
ATOM     18   O  IDS B   1     -11.675  56.979  17.0910  0.00  0.00     0.000 OA
ENDBRANCH 5 16
BRANCH 1 19
ATOM     19  O4  SGN B   2     -15.245  56.049  14.7160  0.00  0.00     0.000 O
BRANCH 19 23
ATOM     20  C1  SGN B   2     -13.955  53.120  12.1640  0.00  0.00     0.000 C
ATOM     21  C2  SGN B   2     -12.980  53.686  13.1740  0.00  0.00     0.000 C
ATOM     22  C3  SGN B   2     -13.732  54.251  14.3240  0.00  0.00     0.000 C
ATOM     23  C4  SGN B   2     -14.537  55.385  13.7330  0.00  0.00     0.000 C
ATOM     24  C5  SGN B   2     -15.519  54.733  12.8210  0.00  0.00     0.000 C
ATOM     25  O5  SGN B   2     -14.848  54.150  11.7640  0.00  0.00     0.000 O
ATOM     26   O  SGN B   2     -12.840  54.731  15.2670  0.00  0.00     0.000 O
ATOM     28  HD  SGN B   2     -12.336  55.204  15.7890  0.00  0.00     0.000 HD
BRANCH 21 30
ATOM     28   N  SGN B   2     -12.111  52.594  13.5050  0.00  0.00     0.000 N
ATOM     30  HD  SGN B   2     -11.630  52.989  14.1080  0.00  0.00     0.000 HD
ATOM     30 @NS  SGN B   2     -10.784  52.404  12.5870  0.00  0.00     0.000 S
ATOM     31   O  SGN B   2     -10.673  53.504  11.6890  0.00  0.00     0.000 OA
ATOM     32   O  SGN B   2      -9.735  52.394  13.5210  0.00  0.00     0.000 OA
ATOM     33   O  SGN B   2     -10.959  51.188  11.8860  0.00  0.00     0.000 OA
ENDBRANCH 21 30
BRANCH 24 34
ATOM     34   C  SGN B   2     -16.539  55.638  12.2340  0.00  0.00     0.000 C
ATOM     35   O  SGN B   2     -17.635  54.866  11.8940  0.00  0.00     0.000 O
ATOM     36  @S  SGN B   2     -18.974  55.451  11.4590  0.00  0.00     0.000 S
ATOM     37   O  SGN B   2     -18.873  55.538  10.0160  0.00  0.00     0.000 OA
ATOM     38   O  SGN B   2     -19.995  54.537  11.9140  0.00  0.00     0.000 OA
ATOM     39   O  SGN B   2     -19.057  56.745  12.1230  0.00  0.00     0.000 OA
ENDBRANCH 24 34
BRANCH 20 40
ATOM     40  O4  IDS B   3     -14.643  52.035  12.7050  0.00  0.00     0.000 O
BRANCH 40 44
ATOM     41  C1  IDS B   3     -15.427  48.643  13.1400  0.00  0.00     0.000 C
ATOM     42  C2  IDS B   3     -14.017  49.067  12.7340  0.00  0.00     0.000 C
ATOM     43  C3  IDS B   3     -13.934  50.098  11.5920  0.00  0.00     0.000 C
ATOM     44  C4  IDS B   3     -15.030  51.138  11.7180  0.00  0.00     0.000 C
ATOM     45  C5  IDS B   3     -16.384  50.508  12.0800  0.00  0.00     0.000 C
ATOM     46  O5  IDS B   3     -16.277  49.776  13.2460  0.00  0.00     0.000 O
ATOM     47   O  IDS B   3     -14.091  49.438  10.3530  0.00  0.00     0.000 O
ATOM     49  HD  IDS B   3     -13.820  50.064  10.8870  0.00  0.00     0.000 HD
BRANCH 42 49
ATOM     49   O  IDS B   3     -13.385  49.634  13.8470  0.00  0.00     0.000 O
ATOM     50   O  IDS B   3     -12.815  47.502  14.6710  0.00  0.00     0.000 OA
ATOM     51   O  IDS B   3     -11.257  49.271  14.8790  0.00  0.00     0.000 OA
ATOM     52   O  IDS B   3     -13.256  49.291  16.1330  0.00  0.00     0.000 OA
ATOM     53  @S  IDS B   3     -12.630  48.879  14.9450  0.00  0.00     0.000 S
ENDBRANCH 42 49
BRANCH 45 54
ATOM     54 @CA  IDS B   3     -17.551  51.487  12.1920  0.00  0.00     0.000 C
ATOM     55   O  IDS B   3     -17.820  52.031  13.2290  0.00  0.00     0.000 OA
ATOM     56   O  IDS B   3     -18.219  51.761  11.2510  0.00  0.00     0.000 OA
ENDBRANCH 45 54
BRANCH 41 57
ATOM     57  O4  SGN B   4     -15.916  47.718  12.2270  0.00  0.00     0.000 O
BRANCH 57 61
ATOM     58  C1  SGN B   4     -19.372  46.704  14.2340  0.00  0.00     0.000 C
ATOM     59  C2  SGN B   4     -18.086  46.148  14.8200  0.00  0.00     0.000 C
ATOM     60  C3  SGN B   4     -16.888  46.896  14.2430  0.00  0.00     0.000 C
ATOM     61  C4  SGN B   4     -16.892  46.847  12.7100  0.00  0.00     0.000 C
ATOM     62  C5  SGN B   4     -18.255  47.338  12.2300  0.00  0.00     0.000 C
ATOM     63  O5  SGN B   4     -19.306  46.598  12.8220  0.00  0.00     0.000 O
ATOM     64   O  SGN B   4     -15.702  46.285  14.7080  0.00  0.00     0.000 O
ATOM     66  HD  SGN B   4     -15.171  45.966  14.1040  0.00  0.00     0.000 HD
BRANCH 59 68
ATOM     66   N  SGN B   4     -18.456  45.026  15.6590  0.00  0.00     0.000 N
ATOM     68  HD  SGN B   4     -18.768  45.430  14.9590  0.00  0.00     0.000 HD
ATOM     68 @NS  SGN B   4     -19.085  45.290  17.1500  0.00  0.00     0.000 S
ATOM     69   O  SGN B   4     -18.412  46.415  17.7300  0.00  0.00     0.000 OA
ATOM     70   O  SGN B   4     -20.480  45.561  16.9530  0.00  0.00     0.000 OA
ATOM     71   O  SGN B   4     -18.838  44.071  17.8600  0.00  0.00     0.000 OA
ENDBRANCH 59 68
BRANCH 62 72
ATOM     72   C  SGN B   4     -18.429  47.218  10.7240  0.00  0.00     0.000 C
ATOM     73   O  SGN B   4     -17.894  48.392  10.1890  0.00  0.00     0.000 O
ATOM     74  @S  SGN B   4     -17.202  48.570   8.8270  0.00  0.00     0.000 S
ATOM     75   O  SGN B   4     -18.125  48.172   7.8290  0.00  0.00     0.000 OA
ATOM     76   O  SGN B   4     -16.905  49.969   8.7640  0.00  0.00     0.000 OA
ATOM     77   O  SGN B   4     -16.065  47.713   8.8530  0.00  0.00     0.000 OA
ENDBRANCH 62 72
BRANCH 58 78
ATOM     78  O4  IDS B   5     -19.566  48.037  14.6630  0.00  0.00     0.000 O
BRANCH 78 82
ATOM     79  C1  IDS B   5     -20.620  51.227  15.5020  0.00  0.00     0.000 C
ATOM     80  C2  IDS B   5     -20.388  50.223  16.5900  0.00  0.00     0.000 C
ATOM     81  C3  IDS B   5     -21.075  48.882  16.3470  0.00  0.00     0.000 C
ATOM     82  C4  IDS B   5     -20.908  48.389  14.9240  0.00  0.00     0.000 C
ATOM     83  C5  IDS B   5     -21.299  49.507  14.0110  0.00  0.00     0.000 C
ATOM     84  O5  IDS B   5     -20.452  50.618  14.2350  0.00  0.00     0.000 O
ATOM     85   O  IDS B   5     -22.451  49.055  16.5790  0.00  0.00     0.000 O
ATOM     87  HD  IDS B   5     -22.060  48.733  15.8770  0.00  0.00     0.000 HD
BRANCH 80 87
ATOM     87   O  IDS B   5     -19.040  49.975  16.6640  0.00  0.00     0.000 O
ATOM     88  @S  IDS B   5     -18.151  50.078  17.9060  0.00  0.00     0.000 S
ATOM     89   O  IDS B   5     -18.795  49.282  18.8870  0.00  0.00     0.000 OA
ATOM     90   O  IDS B   5     -16.879  49.592  17.5020  0.00  0.00     0.000 OA
ATOM     91   O  IDS B   5     -18.111  51.458  18.2470  0.00  0.00     0.000 OA
ENDBRANCH 80 87
BRANCH 83 92
ATOM     92 @CA  IDS B   5     -21.364  49.105  12.5420  0.00  0.00     0.000 C
ATOM     93   O  IDS B   5     -22.011  48.119  12.1820  0.00  0.00     0.000 OA
ATOM     94   O  IDS B   5     -20.763  49.762  11.6830  0.00  0.00     0.000 OA
ENDBRANCH 83 92
BRANCH 79 95
ATOM     95  O4  SGN B   6     -21.882  51.789  15.6520  0.00  0.00     0.000 O
BRANCH 95 99
ATOM     96  C1  SGN B   6     -24.409  54.132  13.3420  0.00  0.00     0.000 C
ATOM     97  C2  SGN B   6     -24.141  52.725  12.8190  0.00  0.00     0.000 C
ATOM     98  C3  SGN B   6     -23.691  51.892  14.0200  0.00  0.00     0.000 C
ATOM     99  C4  SGN B   6     -22.348  52.497  14.5180  0.00  0.00     0.000 C
ATOM    100  C5  SGN B   6     -22.648  53.967  14.9300  0.00  0.00     0.000 C
ATOM    101  O5  SGN B   6     -23.220  54.703  13.8530  0.00  0.00     0.000 O
BRANCH 97 104
ATOM    102   N  SGN B   6     -24.141  52.946  11.3700  0.00  0.00     0.000 N
ATOM    104  HD  SGN B   6     -24.808  53.454  11.1530  0.00  0.00     0.000 HD
ATOM    104 @NS  SGN B   6     -25.425  52.354  10.5030  0.00  0.00     0.000 S
ATOM    105   O  SGN B   6     -26.340  51.738  11.4380  0.00  0.00     0.000 OA
ATOM    106   O  SGN B   6     -26.019  53.479   9.8180  0.00  0.00     0.000 OA
ATOM    107   O  SGN B   6     -24.874  51.379   9.5880  0.00  0.00     0.000 OA
ENDBRANCH 97 104
BRANCH 100 108
ATOM    108   C  SGN B   6     -21.455  54.785  15.4100  0.00  0.00     0.000 C
ATOM    109   O  SGN B   6     -21.161  54.444  16.7420  0.00  0.00     0.000 O
ATOM    110  @S  SGN B   6     -20.008  55.060  17.6150  0.00  0.00     0.000 S
ATOM    111   O  SGN B   6     -19.990  56.470  17.3100  0.00  0.00     0.000 OA
ATOM    112   O  SGN B   6     -20.363  54.804  19.0020  0.00  0.00     0.000 OA
ATOM    113   O  SGN B   6     -18.800  54.383  17.2030  0.00  0.00     0.000 OA
ENDBRANCH 100 108
ENDBRANCH 95 99
ENDBRANCH 79 95
ENDBRANCH 78 82
ENDBRANCH 58 78
ENDBRANCH 57 61
ENDBRANCH 41 57
ENDBRANCH 40 44
ENDBRANCH 20 40
ENDBRANCH 19 23
ENDBRANCH 1 19
TORSDOF 22
ENDMDL
MODEL 29
REMARK VINA RESULT:      -1.6      4.660      6.308
ROOT
ATOM      1  C1  IDS B   1     -15.642  47.496  14.6520  0.00  0.00     0.000 C
ATOM      2  C2  IDS B   1     -14.444  47.995  13.8860  0.00  0.00     0.000 C
ATOM      3  C3  IDS B   1     -13.921  49.397  14.2800  0.00  0.00     0.000 C
ATOM      4  C4  IDS B   1     -14.209  49.782  15.7790  0.00  0.00     0.000 C
ATOM      5  C5  IDS B   1     -15.476  49.092  16.3390  0.00  0.00     0.000 C
ATOM      6  O5  IDS B   1     -15.455  47.724  16.0340  0.00  0.00     0.000 O
ATOM      7   O  IDS B   1     -14.514  50.335  13.3880  0.00  0.00     0.000 O
ATOM      9  HD  IDS B   1     -14.288  50.736  14.1210  0.00  0.00     0.000 HD
ATOM      9   O  IDS B   1     -13.107  49.359  16.5500  0.00  0.00     0.000 O
ATOM     11  HD  IDS B   1     -12.882  49.760  17.2840  0.00  0.00     0.000 HD
ENDROOT
BRANCH 2 11
ATOM     11   O  IDS B   1     -13.384  47.118  14.0560  0.00  0.00     0.000 O
ATOM     12  @S  IDS B   1     -12.750  46.288  12.9240  0.00  0.00     0.000 S
ATOM     13   O  IDS B   1     -13.823  46.136  11.9620  0.00  0.00     0.000 OA
ATOM     14   O  IDS B   1     -11.642  47.070  12.4040  0.00  0.00     0.000 OA
ATOM     15   O  IDS B   1     -12.323  45.045  13.5360  0.00  0.00     0.000 OA
ENDBRANCH 2 11
BRANCH 5 16
ATOM     16 @CA  IDS B   1     -15.756  49.284  17.8270  0.00  0.00     0.000 C
ATOM     17   O  IDS B   1     -16.721  49.932  18.2230  0.00  0.00     0.000 OA
ATOM     18   O  IDS B   1     -15.020  48.776  18.6700  0.00  0.00     0.000 OA
ENDBRANCH 5 16
BRANCH 1 19
ATOM     19  O4  SGN B   2     -16.781  48.184  14.1780  0.00  0.00     0.000 O
BRANCH 19 23
ATOM     20  C1  SGN B   2     -20.710  47.111  13.7690  0.00  0.00     0.000 C
ATOM     21  C2  SGN B   2     -20.013  46.828  15.0810  0.00  0.00     0.000 C
ATOM     22  C3  SGN B   2     -18.870  47.764  15.2450  0.00  0.00     0.000 C
ATOM     23  C4  SGN B   2     -17.932  47.423  14.1090  0.00  0.00     0.000 C
ATOM     24  C5  SGN B   2     -18.663  47.808  12.8700  0.00  0.00     0.000 C
ATOM     25  O5  SGN B   2     -19.766  46.990  12.7140  0.00  0.00     0.000 O
ATOM     26   O  SGN B   2     -18.256  47.534  16.4640  0.00  0.00     0.000 O
ATOM     28  HD  SGN B   2     -17.736  47.306  17.1180  0.00  0.00     0.000 HD
BRANCH 21 30
ATOM     28   N  SGN B   2     -21.126  46.973  15.9730  0.00  0.00     0.000 N
ATOM     30  HD  SGN B   2     -20.693  46.983  16.7220  0.00  0.00     0.000 HD
ATOM     30 @NS  SGN B   2     -21.879  45.610  16.4380  0.00  0.00     0.000 S
ATOM     31   O  SGN B   2     -21.150  44.485  15.9590  0.00  0.00     0.000 OA
ATOM     32   O  SGN B   2     -21.854  45.682  17.8410  0.00  0.00     0.000 OA
ATOM     33   O  SGN B   2     -23.173  45.660  15.8700  0.00  0.00     0.000 OA
ENDBRANCH 21 30
BRANCH 24 34
ATOM     34   C  SGN B   2     -17.879  47.713  11.6130  0.00  0.00     0.000 C
ATOM     35   O  SGN B   2     -17.450  48.989  11.2920  0.00  0.00     0.000 O
ATOM     36  @S  SGN B   2     -16.439  49.283  10.1910  0.00  0.00     0.000 S
ATOM     37   O  SGN B   2     -17.251  49.505   9.0110  0.00  0.00     0.000 OA
ATOM     38   O  SGN B   2     -15.695  50.449  10.6090  0.00  0.00     0.000 OA
ATOM     39   O  SGN B   2     -15.601  48.094  10.1140  0.00  0.00     0.000 OA
ENDBRANCH 24 34
BRANCH 20 40
ATOM     40  O4  IDS B   3     -21.290  48.379  13.7870  0.00  0.00     0.000 O
BRANCH 40 44
ATOM     41  C1  IDS B   3     -23.484  51.096  13.4570  0.00  0.00     0.000 C
ATOM     42  C2  IDS B   3     -23.681  50.071  14.5720  0.00  0.00     0.000 C
ATOM     43  C3  IDS B   3     -23.596  48.594  14.1420  0.00  0.00     0.000 C
ATOM     44  C4  IDS B   3     -22.503  48.390  13.1120  0.00  0.00     0.000 C
ATOM     45  C5  IDS B   3     -22.503  49.495  12.0440  0.00  0.00     0.000 C
ATOM     46  O5  IDS B   3     -22.380  50.736  12.6380  0.00  0.00     0.000 O
ATOM     47   O  IDS B   3     -24.826  48.203  13.5670  0.00  0.00     0.000 O
ATOM     49  HD  IDS B   3     -24.073  48.087  13.9790  0.00  0.00     0.000 HD
BRANCH 42 49
ATOM     49   O  IDS B   3     -22.694  50.275  15.5430  0.00  0.00     0.000 O
ATOM     50   O  IDS B   3     -24.289  50.121  17.2690  0.00  0.00     0.000 OA
ATOM     51   O  IDS B   3     -22.152  49.152  17.5850  0.00  0.00     0.000 OA
ATOM     52   O  IDS B   3     -22.394  51.498  17.4850  0.00  0.00     0.000 OA
ATOM     53  @S  IDS B   3     -22.894  50.256  17.0600  0.00  0.00     0.000 S
ENDBRANCH 42 49
BRANCH 45 54
ATOM     54 @CA  IDS B   3     -21.451  49.344  10.9470  0.00  0.00     0.000 C
ATOM     55   O  IDS B   3     -20.667  50.220  10.7010  0.00  0.00     0.000 OA
ATOM     56   O  IDS B   3     -21.359  48.345  10.3150  0.00  0.00     0.000 OA
ENDBRANCH 45 54
BRANCH 41 57
ATOM     57  O4  SGN B   4     -24.655  51.211  12.7180  0.00  0.00     0.000 O
BRANCH 57 61
ATOM     58  C1  SGN B   4     -26.942  54.153  10.9540  0.00  0.00     0.000 C
ATOM     59  C2  SGN B   4     -25.829  53.582  10.0910  0.00  0.00     0.000 C
ATOM     60  C3  SGN B   4     -25.330  52.271  10.6920  0.00  0.00     0.000 C
ATOM     61  C4  SGN B   4     -24.891  52.462  12.1480  0.00  0.00     0.000 C
ATOM     62  C5  SGN B   4     -26.044  53.122  12.9010  0.00  0.00     0.000 C
ATOM     63  O5  SGN B   4     -26.448  54.323  12.2710  0.00  0.00     0.000 O
ATOM     64   O  SGN B   4     -24.220  51.821   9.9440  0.00  0.00     0.000 O
ATOM     66  HD  SGN B   4     -23.475  51.732  10.3760  0.00  0.00     0.000 HD
BRANCH 59 68
ATOM     66   N  SGN B   4     -25.806  54.724   9.2000  0.00  0.00     0.000 N
ATOM     68  HD  SGN B   4     -26.200  54.497   9.9380  0.00  0.00     0.000 HD
ATOM     68 @NS  SGN B   4     -26.584  54.655   7.7580  0.00  0.00     0.000 S
ATOM     69   O  SGN B   4     -26.420  53.336   7.2220  0.00  0.00     0.000 OA
ATOM     70   O  SGN B   4     -27.962  54.938   8.0340  0.00  0.00     0.000 OA
ATOM     71   O  SGN B   4     -25.945  55.659   6.9630  0.00  0.00     0.000 OA
ENDBRANCH 59 68
BRANCH 62 72
ATOM     72   C  SGN B   4     -25.684  53.481  14.3350  0.00  0.00     0.000 C
ATOM     73   O  SGN B   4     -24.742  54.507  14.2390  0.00  0.00     0.000 O
ATOM     74  @S  SGN B   4     -24.518  55.667  15.2250  0.00  0.00     0.000 S
ATOM     75   O  SGN B   4     -24.222  55.098  16.4880  0.00  0.00     0.000 OA
ATOM     76   O  SGN B   4     -23.405  56.382  14.6780  0.00  0.00     0.000 OA
ATOM     77   O  SGN B   4     -25.743  56.393  15.2560  0.00  0.00     0.000 OA
ENDBRANCH 62 72
BRANCH 58 78
ATOM     78  O4  IDS B   5     -28.074  53.308  10.9100  0.00  0.00     0.000 O
BRANCH 78 82
ATOM     79  C1  IDS B   5     -31.155  51.933  11.6930  0.00  0.00     0.000 C
ATOM     80  C2  IDS B   5     -30.676  51.897  10.2730  0.00  0.00     0.000 C
ATOM     81  C3  IDS B   5     -30.191  53.247   9.7520  0.00  0.00     0.000 C
ATOM     82  C4  IDS B   5     -29.308  53.974  10.7450  0.00  0.00     0.000 C
ATOM     83  C5  IDS B   5     -30.024  53.990  12.0580  0.00  0.00     0.000 C
ATOM     84  O5  IDS B   5     -30.243  52.662  12.4940  0.00  0.00     0.000 O
ATOM     85   O  IDS B   5     -31.323  54.050   9.5200  0.00  0.00     0.000 O
ATOM     87  HD  IDS B   5     -30.623  54.230   9.9970  0.00  0.00     0.000 HD
BRANCH 80 87
ATOM     87   O  IDS B   5     -29.611  51.033  10.2010  0.00  0.00     0.000 O
ATOM     88  @S  IDS B   5     -29.500  49.651  10.8490  0.00  0.00     0.000 S
ATOM     89   O  IDS B   5     -30.658  48.951  10.4230  0.00  0.00     0.000 OA
ATOM     90   O  IDS B   5     -28.279  49.107  10.3690  0.00  0.00     0.000 OA
ATOM     91   O  IDS B   5     -29.469  49.877  12.2520  0.00  0.00     0.000 OA
ENDBRANCH 80 87
BRANCH 83 92
ATOM     92 @CA  IDS B   5     -29.346  54.852  13.1160  0.00  0.00     0.000 C
ATOM     93   O  IDS B   5     -29.219  56.068  12.9590  0.00  0.00     0.000 OA
ATOM     94   O  IDS B   5     -28.905  54.343  14.1540  0.00  0.00     0.000 OA
ENDBRANCH 83 92
BRANCH 79 95
ATOM     95  O4  SGN B   6     -32.436  52.466  11.7360  0.00  0.00     0.000 O
BRANCH 95 99
ATOM     96  C1  SGN B   6     -35.375  52.864  14.6380  0.00  0.00     0.000 C
ATOM     97  C2  SGN B   6     -33.950  53.170  15.0860  0.00  0.00     0.000 C
ATOM     98  C3  SGN B   6     -33.158  53.506  13.8220  0.00  0.00     0.000 C
ATOM     99  C4  SGN B   6     -33.134  52.222  12.9440  0.00  0.00     0.000 C
ATOM    100  C5  SGN B   6     -34.615  51.883  12.6110  0.00  0.00     0.000 C
ATOM    101  O5  SGN B   6     -35.393  51.730  13.7940  0.00  0.00     0.000 O
BRANCH 97 104
ATOM    102   N  SGN B   6     -33.532  52.790  16.4380  0.00  0.00     0.000 N
ATOM    104  HD  SGN B   6     -34.231  52.649  16.9300  0.00  0.00     0.000 HD
ATOM    104 @NS  SGN B   6     -33.929  53.814  17.6820  0.00  0.00     0.000 S
ATOM    105   O  SGN B   6     -34.682  54.915  17.1210  0.00  0.00     0.000 OA
ATOM    106   O  SGN B   6     -34.709  53.043  18.6230  0.00  0.00     0.000 OA
ATOM    107   O  SGN B   6     -32.676  54.266  18.2430  0.00  0.00     0.000 OA
ENDBRANCH 97 104
BRANCH 100 108
ATOM    108   C  SGN B   6     -34.845  50.619  11.7900  0.00  0.00     0.000 C
ATOM    109   O  SGN B   6     -34.169  49.543  12.3920  0.00  0.00     0.000 O
ATOM    110  @S  SGN B   6     -34.141  48.064  11.8630  0.00  0.00     0.000 S
ATOM    111   O  SGN B   6     -34.019  48.158  10.4280  0.00  0.00     0.000 OA
ATOM    112   O  SGN B   6     -32.981  47.432  12.4710  0.00  0.00     0.000 OA
ATOM    113   O  SGN B   6     -35.394  47.475  12.2800  0.00  0.00     0.000 OA
ENDBRANCH 100 108
ENDBRANCH 95 99
ENDBRANCH 79 95
ENDBRANCH 78 82
ENDBRANCH 58 78
ENDBRANCH 57 61
ENDBRANCH 41 57
ENDBRANCH 40 44
ENDBRANCH 20 40
ENDBRANCH 19 23
ENDBRANCH 1 19
TORSDOF 22
ENDMDL
MODEL 30
REMARK VINA RESULT:      -1.6      3.161      5.081
ROOT
ATOM      1  C1  IDS B   1     -15.669  51.668  16.2740  0.00  0.00     0.000 C
ATOM      2  C2  IDS B   1     -15.404  50.242  16.6800  0.00  0.00     0.000 C
ATOM      3  C3  IDS B   1     -15.082  49.256  15.5310  0.00  0.00     0.000 C
ATOM      4  C4  IDS B   1     -14.409  49.938  14.2820  0.00  0.00     0.000 C
ATOM      5  C5  IDS B   1     -14.815  51.424  14.1220  0.00  0.00     0.000 C
ATOM      6  O5  IDS B   1     -14.690  52.092  15.3480  0.00  0.00     0.000 O
ATOM      7   O  IDS B   1     -16.302  48.617  15.1690  0.00  0.00     0.000 O
ATOM      9  HD  IDS B   1     -15.754  48.593  14.5000  0.00  0.00     0.000 HD
ATOM      9   O  IDS B   1     -13.012  49.887  14.4670  0.00  0.00     0.000 O
ATOM     11  HD  IDS B   1     -12.463  49.863  13.7970  0.00  0.00     0.000 HD
ENDROOT
BRANCH 2 11
ATOM     11   O  IDS B   1     -14.325  50.198  17.5480  0.00  0.00     0.000 O
ATOM     12  @S  IDS B   1     -14.416  49.790  19.0320  0.00  0.00     0.000 S
ATOM     13   O  IDS B   1     -15.780  50.117  19.3970  0.00  0.00     0.000 OA
ATOM     14   O  IDS B   1     -14.150  48.364  19.0890  0.00  0.00     0.000 OA
ATOM     15   O  IDS B   1     -13.414  50.578  19.7210  0.00  0.00     0.000 OA
ENDBRANCH 2 11
BRANCH 5 16
ATOM     16 @CA  IDS B   1     -14.099  52.212  13.0290  0.00  0.00     0.000 C
ATOM     17   O  IDS B   1     -13.558  51.651  12.0790  0.00  0.00     0.000 OA
ATOM     18   O  IDS B   1     -14.059  53.439  13.0710  0.00  0.00     0.000 OA
ENDBRANCH 5 16
BRANCH 1 19
ATOM     19  O4  SGN B   2     -16.960  51.728  15.7040  0.00  0.00     0.000 O
BRANCH 19 23
ATOM     20  C1  SGN B   2     -20.506  53.270  17.0470  0.00  0.00     0.000 C
ATOM     21  C2  SGN B   2     -19.240  54.072  17.2540  0.00  0.00     0.000 C
ATOM     22  C3  SGN B   2     -18.230  53.671  16.2410  0.00  0.00     0.000 C
ATOM     23  C4  SGN B   2     -17.944  52.218  16.5420  0.00  0.00     0.000 C
ATOM     24  C5  SGN B   2     -19.211  51.498  16.2320  0.00  0.00     0.000 C
ATOM     25  O5  SGN B   2     -20.190  51.888  17.1260  0.00  0.00     0.000 O
ATOM     26   O  SGN B   2     -17.085  54.433  16.4030  0.00  0.00     0.000 O
ATOM     28  HD  SGN B   2     -16.299  54.747  16.5820  0.00  0.00     0.000 HD
BRANCH 21 30
ATOM     28   N  SGN B   2     -20.310  55.012  17.4210  0.00  0.00     0.000 N
ATOM     30  HD  SGN B   2     -20.073  55.587  16.8180  0.00  0.00     0.000 HD
ATOM     30 @NS  SGN B   2     -20.120  56.149  18.5660  0.00  0.00     0.000 S
ATOM     31   O  SGN B   2     -18.800  56.065  19.0960  0.00  0.00     0.000 OA
ATOM     32   O  SGN B   2     -20.321  57.354  17.8720  0.00  0.00     0.000 OA
ATOM     33   O  SGN B   2     -21.087  55.874  19.5610  0.00  0.00     0.000 OA
ENDBRANCH 21 30
BRANCH 24 34
ATOM     34   C  SGN B   2     -19.134  50.017  16.3000  0.00  0.00     0.000 C
ATOM     35   O  SGN B   2     -18.774  49.677  17.5920  0.00  0.00     0.000 O
ATOM     36  @S  SGN B   2     -18.797  48.248  18.1210  0.00  0.00     0.000 S
ATOM     37   O  SGN B   2     -17.461  47.749  17.8610  0.00  0.00     0.000 OA
ATOM     38   O  SGN B   2     -19.119  48.331  19.5270  0.00  0.00     0.000 OA
ATOM     39   O  SGN B   2     -19.837  47.574  17.3570  0.00  0.00     0.000 OA
ENDBRANCH 24 34
BRANCH 20 40
ATOM     40  O4  IDS B   3     -21.089  53.587  15.8200  0.00  0.00     0.000 O
BRANCH 40 44
ATOM     41  C1  IDS B   3     -24.154  54.233  14.2400  0.00  0.00     0.000 C
ATOM     42  C2  IDS B   3     -24.073  54.127  15.7620  0.00  0.00     0.000 C
ATOM     43  C3  IDS B   3     -23.283  52.920  16.3050  0.00  0.00     0.000 C
ATOM     44  C4  IDS B   3     -22.052  52.654  15.4610  0.00  0.00     0.000 C
ATOM     45  C5  IDS B   3     -22.350  52.755  13.9570  0.00  0.00     0.000 C
ATOM     46  O5  IDS B   3     -22.882  53.994  13.6560  0.00  0.00     0.000 O
ATOM     47   O  IDS B   3     -24.102  51.770  16.2690  0.00  0.00     0.000 O
ATOM     49  HD  IDS B   3     -23.456  52.272  16.5520  0.00  0.00     0.000 HD
BRANCH 42 49
ATOM     49   O  IDS B   3     -23.455  55.280  16.2560  0.00  0.00     0.000 O
ATOM     50   O  IDS B   3     -25.537  56.357  16.4900  0.00  0.00     0.000 OA
ATOM     51   O  IDS B   3     -23.880  56.680  18.1490  0.00  0.00     0.000 OA
ATOM     52   O  IDS B   3     -23.589  57.576  15.9850  0.00  0.00     0.000 OA
ATOM     53  @S  IDS B   3     -24.158  56.546  16.7540  0.00  0.00     0.000 S
ENDBRANCH 42 49
BRANCH 45 54
ATOM     54 @CA  IDS B   3     -21.167  52.466  13.0360  0.00  0.00     0.000 C
ATOM     55   O  IDS B   3     -20.784  51.345  12.8340  0.00  0.00     0.000 OA
ATOM     56   O  IDS B   3     -20.599  53.339  12.4680  0.00  0.00     0.000 OA
ENDBRANCH 45 54
BRANCH 41 57
ATOM     57  O4  SGN B   4     -25.114  53.349  13.7620  0.00  0.00     0.000 O
BRANCH 57 61
ATOM     58  C1  SGN B   4     -27.724  53.353  10.5710  0.00  0.00     0.000 C
ATOM     59  C2  SGN B   4     -26.588  52.347  10.4880  0.00  0.00     0.000 C
ATOM     60  C3  SGN B   4     -25.949  52.175  11.8630  0.00  0.00     0.000 C
ATOM     61  C4  SGN B   4     -25.486  53.522  12.4290  0.00  0.00     0.000 C
ATOM     62  C5  SGN B   4     -26.672  54.481  12.3830  0.00  0.00     0.000 C
ATOM     63  O5  SGN B   4     -27.209  54.573  11.0760  0.00  0.00     0.000 O
ATOM     64   O  SGN B   4     -24.823  51.329  11.7390  0.00  0.00     0.000 O
ATOM     66  HD  SGN B   4     -24.061  51.668  11.9690  0.00  0.00     0.000 HD
BRANCH 59 68
ATOM     66   N  SGN B   4     -26.396  51.889   9.1280  0.00  0.00     0.000 N
ATOM     68  HD  SGN B   4     -26.623  52.622   9.5280  0.00  0.00     0.000 HD
ATOM     68 @NS  SGN B   4     -27.513  50.917   8.4230  0.00  0.00     0.000 S
ATOM     69   O  SGN B   4     -28.004  50.005   9.4140  0.00  0.00     0.000 OA
ATOM     70   O  SGN B   4     -28.554  51.783   7.9500  0.00  0.00     0.000 OA
ATOM     71   O  SGN B   4     -26.799  50.259   7.3710  0.00  0.00     0.000 OA
ENDBRANCH 59 68
BRANCH 62 72
ATOM     72   C  SGN B   4     -26.305  55.896  12.8040  0.00  0.00     0.000 C
ATOM     73   O  SGN B   4     -25.977  56.565  11.6220  0.00  0.00     0.000 O
ATOM     74  @S  SGN B   4     -26.170  58.059  11.3080  0.00  0.00     0.000 S
ATOM     75   O  SGN B   4     -25.453  58.792  12.2840  0.00  0.00     0.000 OA
ATOM     76   O  SGN B   4     -25.617  58.216   9.9960  0.00  0.00     0.000 OA
ATOM     77   O  SGN B   4     -27.571  58.298  11.4030  0.00  0.00     0.000 OA
ENDBRANCH 62 72
BRANCH 58 78
ATOM     78  O4  IDS B   5     -28.771  52.840  11.3700  0.00  0.00     0.000 O
BRANCH 78 82
ATOM     79  C1  IDS B   5     -31.688  51.699  12.8480  0.00  0.00     0.000 C
ATOM     80  C2  IDS B   5     -31.193  51.037  11.5980  0.00  0.00     0.000 C
ATOM     81  C3  IDS B   5     -30.855  52.015  10.4750  0.00  0.00     0.000 C
ATOM     82  C4  IDS B   5     -30.069  53.215  10.9620  0.00  0.00     0.000 C
ATOM     83  C5  IDS B   5     -30.798  53.784  12.1380  0.00  0.00     0.000 C
ATOM     84  O5  IDS B   5     -30.872  52.812  13.1640  0.00  0.00     0.000 O
ATOM     85   O  IDS B   5     -32.067  52.487   9.9380  0.00  0.00     0.000 O
ATOM     87  HD  IDS B   5     -31.397  52.945  10.2410  0.00  0.00     0.000 HD
BRANCH 80 87
ATOM     87   O  IDS B   5     -30.038  50.359  11.9000  0.00  0.00     0.000 O
ATOM     88  @S  IDS B   5     -29.922  48.939  12.4580  0.00  0.00     0.000 S
ATOM     89   O  IDS B   5     -30.681  48.132  11.5720  0.00  0.00     0.000 OA
ATOM     90   O  IDS B   5     -28.531  48.648  12.4650  0.00  0.00     0.000 OA
ATOM     91   O  IDS B   5     -30.464  48.988  13.7710  0.00  0.00     0.000 OA
ENDBRANCH 80 87
BRANCH 83 92
ATOM     92 @CA  IDS B   5     -30.231  55.112  12.6270  0.00  0.00     0.000 C
ATOM     93   O  IDS B   5     -29.656  55.194  13.7140  0.00  0.00     0.000 OA
ATOM     94   O  IDS B   5     -30.343  56.135  11.9410  0.00  0.00     0.000 OA
ENDBRANCH 83 92
BRANCH 79 95
ATOM     95  O4  SGN B   6     -33.022  52.053  12.6880  0.00  0.00     0.000 O
BRANCH 95 99
ATOM     96  C1  SGN B   6     -36.051  52.963  15.3720  0.00  0.00     0.000 C
ATOM     97  C2  SGN B   6     -34.629  53.195  15.8680  0.00  0.00     0.000 C
ATOM     98  C3  SGN B   6     -33.751  53.343  14.6250  0.00  0.00     0.000 C
ATOM     99  C4  SGN B   6     -33.794  51.983  13.8720  0.00  0.00     0.000 C
ATOM    100  C5  SGN B   6     -35.281  51.734  13.4890  0.00  0.00     0.000 C
ATOM    101  O5  SGN B   6     -36.125  51.758  14.6360  0.00  0.00     0.000 O
BRANCH 97 104
ATOM    102   N  SGN B   6     -33.968  54.009  16.8940  0.00  0.00     0.000 N
ATOM    104  HD  SGN B   6     -33.701  53.500  17.5420  0.00  0.00     0.000 HD
ATOM    104 @NS  SGN B   6     -34.678  54.082  18.3920  0.00  0.00     0.000 S
ATOM    105   O  SGN B   6     -35.854  53.241  18.3620  0.00  0.00     0.000 OA
ATOM    106   O  SGN B   6     -33.695  53.612  19.3410  0.00  0.00     0.000 OA
ATOM    107   O  SGN B   6     -35.028  55.469  18.6000  0.00  0.00     0.000 OA
ENDBRANCH 97 104
BRANCH 100 108
ATOM    108   C  SGN B   6     -35.579  50.420  12.7770  0.00  0.00     0.000 C
ATOM    109   O  SGN B   6     -36.068  50.688  11.4860  0.00  0.00     0.000 O
ATOM    110  @S  SGN B   6     -36.502  49.613  10.4250  0.00  0.00     0.000 S
ATOM    111   O  SGN B   6     -37.203  48.589  11.1610  0.00  0.00     0.000 OA
ATOM    112   O  SGN B   6     -37.368  50.297   9.4780  0.00  0.00     0.000 OA
ATOM    113   O  SGN B   6     -35.275  49.133   9.8300  0.00  0.00     0.000 OA
ENDBRANCH 100 108
ENDBRANCH 95 99
ENDBRANCH 79 95
ENDBRANCH 78 82
ENDBRANCH 58 78
ENDBRANCH 57 61
ENDBRANCH 41 57
ENDBRANCH 40 44
ENDBRANCH 20 40
ENDBRANCH 19 23
ENDBRANCH 1 19
TORSDOF 22
ENDMDL
MODEL 31
REMARK VINA RESULT:      -1.4      3.095      4.908
ROOT
ATOM      1  C1  IDS B   1     -17.039  50.291  12.3700  0.00  0.00     0.000 C
ATOM      2  C2  IDS B   1     -15.623  50.186  11.8660  0.00  0.00     0.000 C
ATOM      3  C3  IDS B   1     -15.309  48.968  10.9660  0.00  0.00     0.000 C
ATOM      4  C4  IDS B   1     -16.554  48.440  10.1590  0.00  0.00     0.000 C
ATOM      5  C5  IDS B   1     -17.895  48.719  10.8810  0.00  0.00     0.000 C
ATOM      6  O5  IDS B   1     -17.943  50.053  11.3100  0.00  0.00     0.000 O
ATOM      7   O  IDS B   1     -14.774  47.949  11.8050  0.00  0.00     0.000 O
ATOM      9  HD  IDS B   1     -15.118  47.589  11.0960  0.00  0.00     0.000 HD
ATOM      9   O  IDS B   1     -16.579  49.113   8.9200  0.00  0.00     0.000 O
ATOM     11  HD  IDS B   1     -16.923  48.753   8.2120  0.00  0.00     0.000 HD
ENDROOT
BRANCH 2 11
ATOM     11   O  IDS B   1     -15.308  51.314  11.1240  0.00  0.00     0.000 O
ATOM     12  @S  IDS B   1     -14.186  52.307  11.4820  0.00  0.00     0.000 S
ATOM     13   O  IDS B   1     -14.057  52.181  12.9200  0.00  0.00     0.000 OA
ATOM     14   O  IDS B   1     -12.997  51.865  10.7760  0.00  0.00     0.000 OA
ATOM     15   O  IDS B   1     -14.653  53.607  11.0410  0.00  0.00     0.000 OA
ENDBRANCH 2 11
BRANCH 5 16
ATOM     16 @CA  IDS B   1     -19.167  48.380  10.1100  0.00  0.00     0.000 C
ATOM     17   O  IDS B   1     -19.774  47.328  10.2990  0.00  0.00     0.000 OA
ATOM     18   O  IDS B   1     -19.624  49.166   9.2850  0.00  0.00     0.000 OA
ENDBRANCH 5 16
BRANCH 1 19
ATOM     19  O4  SGN B   2     -17.208  49.338  13.3990  0.00  0.00     0.000 O
BRANCH 19 23
ATOM     20  C1  SGN B   2     -19.825  51.362  15.8100  0.00  0.00     0.000 C
ATOM     21  C2  SGN B   2     -18.344  51.630  15.9590  0.00  0.00     0.000 C
ATOM     22  C3  SGN B   2     -17.650  51.292  14.6890  0.00  0.00     0.000 C
ATOM     23  C4  SGN B   2     -17.864  49.805  14.5220  0.00  0.00     0.000 C
ATOM     24  C5  SGN B   2     -19.327  49.643  14.3000  0.00  0.00     0.000 C
ATOM     25  O5  SGN B   2     -20.008  50.000  15.4470  0.00  0.00     0.000 O
ATOM     26   O  SGN B   2     -16.301  51.576  14.8100  0.00  0.00     0.000 O
ATOM     28  HD  SGN B   2     -15.439  51.562  14.9000  0.00  0.00     0.000 HD
BRANCH 21 30
ATOM     28   N  SGN B   2     -18.518  51.828  17.3680  0.00  0.00     0.000 N
ATOM     30  HD  SGN B   2     -19.374  51.958  17.3770  0.00  0.00     0.000 HD
ATOM     30 @NS  SGN B   2     -18.295  53.336  17.9330  0.00  0.00     0.000 S
ATOM     31   O  SGN B   2     -18.108  54.224  16.8360  0.00  0.00     0.000 OA
ATOM     32   O  SGN B   2     -19.489  53.610  18.6220  0.00  0.00     0.000 OA
ATOM     33   O  SGN B   2     -17.143  53.285  18.7510  0.00  0.00     0.000 OA
ENDBRANCH 21 30
BRANCH 24 34
ATOM     34   C  SGN B   2     -19.769  48.270  13.9500  0.00  0.00     0.000 C
ATOM     35   O  SGN B   2     -21.022  48.080  14.5050  0.00  0.00     0.000 O
ATOM     36  @S  SGN B   2     -21.906  46.878  14.1930  0.00  0.00     0.000 S
ATOM     37   O  SGN B   2     -21.559  45.907  15.2110  0.00  0.00     0.000 OA
ATOM     38   O  SGN B   2     -23.273  47.337  14.2730  0.00  0.00     0.000 OA
ATOM     39   O  SGN B   2     -21.538  46.474  12.8430  0.00  0.00     0.000 OA
ENDBRANCH 24 34
BRANCH 20 40
ATOM     40  O4  IDS B   3     -20.384  52.218  14.8620  0.00  0.00     0.000 O
BRANCH 40 44
ATOM     41  C1  IDS B   3     -22.947  54.417  13.9160  0.00  0.00     0.000 C
ATOM     42  C2  IDS B   3     -22.749  54.043  15.3830  0.00  0.00     0.000 C
ATOM     43  C3  IDS B   3     -22.560  52.541  15.6680  0.00  0.00     0.000 C
ATOM     44  C4  IDS B   3     -21.707  51.889  14.5990  0.00  0.00     0.000 C
ATOM     45  C5  IDS B   3     -22.095  52.353  13.1870  0.00  0.00     0.000 C
ATOM     46  O5  IDS B   3     -22.015  53.729  13.0950  0.00  0.00     0.000 O
ATOM     47   O  IDS B   3     -23.821  51.905  15.6780  0.00  0.00     0.000 O
ATOM     49  HD  IDS B   3     -22.987  52.010  15.8850  0.00  0.00     0.000 HD
BRANCH 42 49
ATOM     49   O  IDS B   3     -21.609  54.699  15.8590  0.00  0.00     0.000 O
ATOM     50   O  IDS B   3     -22.872  56.614  16.3930  0.00  0.00     0.000 OA
ATOM     51   O  IDS B   3     -21.144  55.929  17.8590  0.00  0.00     0.000 OA
ATOM     52   O  IDS B   3     -20.623  56.790  15.7240  0.00  0.00     0.000 OA
ATOM     53  @S  IDS B   3     -21.561  56.089  16.5010  0.00  0.00     0.000 S
ENDBRANCH 42 49
BRANCH 45 54
ATOM     54 @CA  IDS B   3     -21.303  51.715  12.0480  0.00  0.00     0.000 C
ATOM     55   O  IDS B   3     -21.242  50.523  11.9130  0.00  0.00     0.000 OA
ATOM     56   O  IDS B   3     -20.738  52.378  11.2420  0.00  0.00     0.000 OA
ENDBRANCH 45 54
BRANCH 41 57
ATOM     57  O4  SGN B   4     -24.258  54.149  13.5400  0.00  0.00     0.000 O
BRANCH 57 61
ATOM     58  C1  SGN B   4     -26.987  55.229  10.6440  0.00  0.00     0.000 C
ATOM     59  C2  SGN B   4     -25.613  54.827  10.1340  0.00  0.00     0.000 C
ATOM     60  C3  SGN B   4     -24.849  54.092  11.2310  0.00  0.00     0.000 C
ATOM     61  C4  SGN B   4     -24.765  54.937  12.5070  0.00  0.00     0.000 C
ATOM     62  C5  SGN B   4     -26.183  55.363  12.8800  0.00  0.00     0.000 C
ATOM     63  O5  SGN B   4     -26.820  56.026  11.8050  0.00  0.00     0.000 O
ATOM     64   O  SGN B   4     -23.536  53.835  10.7760  0.00  0.00     0.000 O
ATOM     66  HD  SGN B   4     -22.893  54.182  11.2410  0.00  0.00     0.000 HD
BRANCH 59 68
ATOM     66   N  SGN B   4     -25.402  55.311   8.7850  0.00  0.00     0.000 N
ATOM     68  HD  SGN B   4     -25.806  55.578   9.5030  0.00  0.00     0.000 HD
ATOM     68 @NS  SGN B   4     -26.227  54.643   7.5350  0.00  0.00     0.000 S
ATOM     69   O  SGN B   4     -26.339  53.234   7.7720  0.00  0.00     0.000 OA
ATOM     70   O  SGN B   4     -27.514  55.274   7.5240  0.00  0.00     0.000 OA
ATOM     71   O  SGN B   4     -25.434  54.949   6.3830  0.00  0.00     0.000 OA
ENDBRANCH 59 68
BRANCH 62 72
ATOM     72   C  SGN B   4     -26.222  56.316  14.0650  0.00  0.00     0.000 C
ATOM     73   O  SGN B   4     -26.433  57.584  13.5190  0.00  0.00     0.000 O
ATOM     74  @S  SGN B   4     -27.185  58.764  14.1580  0.00  0.00     0.000 S
ATOM     75   O  SGN B   4     -26.543  59.062  15.3840  0.00  0.00     0.000 OA
ATOM     76   O  SGN B   4     -27.051  59.823  13.2030  0.00  0.00     0.000 OA
ATOM     77   O  SGN B   4     -28.518  58.308  14.3670  0.00  0.00     0.000 OA
ENDBRANCH 62 72
BRANCH 58 78
ATOM     78  O4  IDS B   5     -27.771  54.079  10.8910  0.00  0.00     0.000 O
BRANCH 78 82
ATOM     79  C1  IDS B   5     -30.129  51.582  11.3400  0.00  0.00     0.000 C
ATOM     80  C2  IDS B   5     -29.564  51.819   9.9730  0.00  0.00     0.000 C
ATOM     81  C3  IDS B   5     -29.601  53.281   9.5350  0.00  0.00     0.000 C
ATOM     82  C4  IDS B   5     -29.149  54.229  10.6270  0.00  0.00     0.000 C
ATOM     83  C5  IDS B   5     -29.916  53.890  11.8640  0.00  0.00     0.000 C
ATOM     84  O5  IDS B   5     -29.637  52.556  12.2440  0.00  0.00     0.000 O
ATOM     85   O  IDS B   5     -30.933  53.601   9.2170  0.00  0.00     0.000 O
ATOM     87  HD  IDS B   5     -30.397  54.006   9.7630  0.00  0.00     0.000 HD
BRANCH 80 87
ATOM     87   O  IDS B   5     -28.246  51.436   9.9800  0.00  0.00     0.000 O
ATOM     88  @S  IDS B   5     -27.606  50.320   9.1520  0.00  0.00     0.000 S
ATOM     89   O  IDS B   5     -27.969  50.603   7.8100  0.00  0.00     0.000 OA
ATOM     90   O  IDS B   5     -26.212  50.409   9.4100  0.00  0.00     0.000 OA
ATOM     91   O  IDS B   5     -28.161  49.104   9.6350  0.00  0.00     0.000 OA
ENDBRANCH 80 87
BRANCH 83 92
ATOM     92 @CA  IDS B   5     -29.710  54.880  13.0050  0.00  0.00     0.000 C
ATOM     93   O  IDS B   5     -30.000  56.071  12.8720  0.00  0.00     0.000 OA
ATOM     94   O  IDS B   5     -29.241  54.505  14.0860  0.00  0.00     0.000 OA
ENDBRANCH 83 92
BRANCH 79 95
ATOM     95  O4  SGN B   6     -31.516  51.580  11.2750  0.00  0.00     0.000 O
BRANCH 95 99
ATOM     96  C1  SGN B   6     -34.609  50.761  13.9160  0.00  0.00     0.000 C
ATOM     97  C2  SGN B   6     -33.481  51.631  14.4590  0.00  0.00     0.000 C
ATOM     98  C3  SGN B   6     -32.786  52.251  13.2470  0.00  0.00     0.000 C
ATOM     99  C4  SGN B   6     -32.158  51.082  12.4350  0.00  0.00     0.000 C
ATOM    100  C5  SGN B   6     -33.334  50.160  12.0020  0.00  0.00     0.000 C
ATOM    101  O5  SGN B   6     -34.084  49.711  13.1270  0.00  0.00     0.000 O
BRANCH 97 104
ATOM    102   N  SGN B   6     -33.366  51.220  15.8620  0.00  0.00     0.000 N
ATOM    104  HD  SGN B   6     -34.156  51.110  16.1990  0.00  0.00     0.000 HD
ATOM    104 @NS  SGN B   6     -33.960  52.253  17.0170  0.00  0.00     0.000 S
ATOM    105   O  SGN B   6     -34.530  53.394  16.3340  0.00  0.00     0.000 OA
ATOM    106   O  SGN B   6     -34.950  51.514  17.7660  0.00  0.00     0.000 OA
ATOM    107   O  SGN B   6     -32.828  52.638  17.8290  0.00  0.00     0.000 OA
ENDBRANCH 97 104
BRANCH 100 108
ATOM    108   C  SGN B   6     -32.951  48.906  11.2260  0.00  0.00     0.000 C
ATOM    109   O  SGN B   6     -32.041  48.148  11.9830  0.00  0.00     0.000 O
ATOM    110  @S  SGN B   6     -31.391  46.785  11.5460  0.00  0.00     0.000 S
ATOM    111   O  SGN B   6     -31.076  46.927  10.1450  0.00  0.00     0.000 OA
ATOM    112   O  SGN B   6     -30.199  46.618  12.3620  0.00  0.00     0.000 OA
ATOM    113   O  SGN B   6     -32.396  45.776  11.7930  0.00  0.00     0.000 OA
ENDBRANCH 100 108
ENDBRANCH 95 99
ENDBRANCH 79 95
ENDBRANCH 78 82
ENDBRANCH 58 78
ENDBRANCH 57 61
ENDBRANCH 41 57
ENDBRANCH 40 44
ENDBRANCH 20 40
ENDBRANCH 19 23
ENDBRANCH 1 19
TORSDOF 22
ENDMDL
MODEL 32
REMARK VINA RESULT:      -1.4      4.474     11.464
ROOT
ATOM      1  C1  IDS B   1     -24.878  55.182  11.4040  0.00  0.00     0.000 C
ATOM      2  C2  IDS B   1     -25.252  54.540  10.0930  0.00  0.00     0.000 C
ATOM      3  C3  IDS B   1     -26.010  53.194  10.1870  0.00  0.00     0.000 C
ATOM      4  C4  IDS B   1     -26.865  53.039  11.4990  0.00  0.00     0.000 C
ATOM      5  C5  IDS B   1     -26.285  53.843  12.6880  0.00  0.00     0.000 C
ATOM      6  O5  IDS B   1     -25.983  55.151  12.2840  0.00  0.00     0.000 O
ATOM      7   O  IDS B   1     -25.040  52.156  10.0820  0.00  0.00     0.000 O
ATOM      9  HD  IDS B   1     -25.740  51.858  10.4980  0.00  0.00     0.000 HD
ATOM      9   O  IDS B   1     -28.157  53.534  11.2300  0.00  0.00     0.000 O
ATOM     11  HD  IDS B   1     -28.857  53.237  11.6450  0.00  0.00     0.000 HD
ENDROOT
BRANCH 2 11
ATOM     11   O  IDS B   1     -26.064  55.398   9.3690  0.00  0.00     0.000 O
ATOM     12  @S  IDS B   1     -26.168  55.410   7.8310  0.00  0.00     0.000 S
ATOM     13   O  IDS B   1     -24.888  54.890   7.3940  0.00  0.00     0.000 OA
ATOM     14   O  IDS B   1     -27.273  54.535   7.4820  0.00  0.00     0.000 OA
ATOM     15   O  IDS B   1     -26.404  56.791   7.4620  0.00  0.00     0.000 OA
ENDBRANCH 2 11
BRANCH 5 16
ATOM     16 @CA  IDS B   1     -27.124  53.878  13.9620  0.00  0.00     0.000 C
ATOM     17   O  IDS B   1     -26.742  53.343  15.0000  0.00  0.00     0.000 OA
ATOM     18   O  IDS B   1     -28.206  54.460  13.9800  0.00  0.00     0.000 OA
ENDBRANCH 5 16
BRANCH 1 19
ATOM     19  O4  SGN B   2     -23.785  54.469  11.9430  0.00  0.00     0.000 O
BRANCH 19 23
ATOM     20  C1  SGN B   2     -20.522  55.629  14.1270  0.00  0.00     0.000 C
ATOM     21  C2  SGN B   2     -21.858  55.505  14.8260  0.00  0.00     0.000 C
ATOM     22  C3  SGN B   2     -22.723  54.559  14.0750  0.00  0.00     0.000 C
ATOM     23  C4  SGN B   2     -22.933  55.220  12.7320  0.00  0.00     0.000 C
ATOM     24  C5  SGN B   2     -21.592  55.224  12.0840  0.00  0.00     0.000 C
ATOM     25  O5  SGN B   2     -20.744  56.055  12.7900  0.00  0.00     0.000 O
ATOM     26   O  SGN B   2     -23.930  54.413  14.7360  0.00  0.00     0.000 O
ATOM     28  HD  SGN B   2     -24.752  54.434  15.0080  0.00  0.00     0.000 HD
BRANCH 21 30
ATOM     28   N  SGN B   2     -20.844  55.598  15.8370  0.00  0.00     0.000 N
ATOM     30  HD  SGN B   2     -20.938  54.811  16.1880  0.00  0.00     0.000 HD
ATOM     30 @NS  SGN B   2     -21.275  56.269  17.2520  0.00  0.00     0.000 S
ATOM     31   O  SGN B   2     -22.679  56.505  17.2510  0.00  0.00     0.000 OA
ATOM     32   O  SGN B   2     -20.916  55.298  18.2010  0.00  0.00     0.000 OA
ATOM     33   O  SGN B   2     -20.554  57.482  17.3500  0.00  0.00     0.000 OA
ENDBRANCH 21 30
BRANCH 24 34
ATOM     34   C  SGN B   2     -21.568  55.685  10.6740  0.00  0.00     0.000 C
ATOM     35   O  SGN B   2     -20.730  54.838   9.9710  0.00  0.00     0.000 O
ATOM     36  @S  SGN B   2     -20.607  54.848   8.4520  0.00  0.00     0.000 S
ATOM     37   O  SGN B   2     -19.521  55.770   8.1880  0.00  0.00     0.000 OA
ATOM     38   O  SGN B   2     -20.324  53.489   8.0500  0.00  0.00     0.000 OA
ATOM     39   O  SGN B   2     -21.901  55.307   7.9670  0.00  0.00     0.000 OA
ENDBRANCH 24 34
BRANCH 20 40
ATOM     40  O4  IDS B   3     -19.837  54.415  14.1640  0.00  0.00     0.000 O
BRANCH 40 44
ATOM     41  C1  IDS B   3     -16.917  52.617  14.9040  0.00  0.00     0.000 C
ATOM     42  C2  IDS B   3     -17.134  54.015  15.4800  0.00  0.00     0.000 C
ATOM     43  C3  IDS B   3     -17.612  55.082  14.4770  0.00  0.00     0.000 C
ATOM     44  C4  IDS B   3     -18.618  54.500  13.5040  0.00  0.00     0.000 C
ATOM     45  C5  IDS B   3     -18.195  53.113  12.9970  0.00  0.00     0.000 C
ATOM     46  O5  IDS B   3     -17.998  52.253  14.0590  0.00  0.00     0.000 O
ATOM     47   O  IDS B   3     -16.507  55.560  13.7390  0.00  0.00     0.000 O
ATOM     49  HD  IDS B   3     -17.294  55.597  14.0970  0.00  0.00     0.000 HD
BRANCH 42 49
ATOM     49   O  IDS B   3     -18.100  53.935  16.4890  0.00  0.00     0.000 O
ATOM     50   O  IDS B   3     -16.515  53.082  18.0090  0.00  0.00     0.000 OA
ATOM     51   O  IDS B   3     -18.134  54.627  18.7790  0.00  0.00     0.000 OA
ATOM     52   O  IDS B   3     -18.778  52.451  18.1320  0.00  0.00     0.000 OA
ATOM     53  @S  IDS B   3     -17.866  53.502  17.9390  0.00  0.00     0.000 S
ENDBRANCH 42 49
BRANCH 45 54
ATOM     54 @CA  IDS B   3     -19.140  52.471  11.9830  0.00  0.00     0.000 C
ATOM     55   O  IDS B   3     -20.232  52.083  12.2980  0.00  0.00     0.000 OA
ATOM     56   O  IDS B   3     -18.835  52.355  10.8430  0.00  0.00     0.000 OA
ENDBRANCH 45 54
BRANCH 41 57
ATOM     57  O4  SGN B   4     -15.702  52.574  14.2310  0.00  0.00     0.000 O
BRANCH 57 61
ATOM     58  C1  SGN B   4     -15.187  48.549  14.9580  0.00  0.00     0.000 C
ATOM     59  C2  SGN B   4     -14.541  49.486  15.9650  0.00  0.00     0.000 C
ATOM     60  C3  SGN B   4     -15.121  50.889  15.8130  0.00  0.00     0.000 C
ATOM     61  C4  SGN B   4     -14.971  51.396  14.3750  0.00  0.00     0.000 C
ATOM     62  C5  SGN B   4     -15.567  50.344  13.4430  0.00  0.00     0.000 C
ATOM     63  O5  SGN B   4     -14.980  49.074  13.6580  0.00  0.00     0.000 O
ATOM     64   O  SGN B   4     -14.424  51.765  16.6740  0.00  0.00     0.000 O
ATOM     66  HD  SGN B   4     -14.012  52.427  16.2970  0.00  0.00     0.000 HD
BRANCH 59 68
ATOM     66   N  SGN B   4     -15.014  48.596  17.0060  0.00  0.00     0.000 N
ATOM     68  HD  SGN B   4     -14.886  49.446  16.9030  0.00  0.00     0.000 HD
ATOM     68 @NS  SGN B   4     -13.949  47.663  17.8350  0.00  0.00     0.000 S
ATOM     69   O  SGN B   4     -12.941  47.212  16.9210  0.00  0.00     0.000 OA
ATOM     70   O  SGN B   4     -13.390  48.505  18.8530  0.00  0.00     0.000 OA
ATOM     71   O  SGN B   4     -14.744  46.593  18.3550  0.00  0.00     0.000 OA
ENDBRANCH 59 68
BRANCH 62 72
ATOM     72   C  SGN B   4     -15.364  50.675  11.9720  0.00  0.00     0.000 C
ATOM     73   O  SGN B   4     -14.089  51.239  11.8870  0.00  0.00     0.000 O
ATOM     74  @S  SGN B   4     -13.107  51.159  10.7060  0.00  0.00     0.000 S
ATOM     75   O  SGN B   4     -13.760  51.707   9.5750  0.00  0.00     0.000 OA
ATOM     76   O  SGN B   4     -11.990  51.950  11.1240  0.00  0.00     0.000 OA
ATOM     77   O  SGN B   4     -12.829  49.774  10.5240  0.00  0.00     0.000 OA
ENDBRANCH 62 72
BRANCH 58 78
ATOM     78  O4  IDS B   5     -16.558  48.382  15.2580  0.00  0.00     0.000 O
BRANCH 78 82
ATOM     79  C1  IDS B   5     -19.793  47.379  15.9820  0.00  0.00     0.000 C
ATOM     80  C2  IDS B   5     -18.681  46.989  16.9070  0.00  0.00     0.000 C
ATOM     81  C3  IDS B   5     -17.482  46.362  16.2000  0.00  0.00     0.000 C
ATOM     82  C4  IDS B   5     -17.086  47.111  14.9450  0.00  0.00     0.000 C
ATOM     83  C5  IDS B   5     -18.320  47.293  14.1200  0.00  0.00     0.000 C
ATOM     84  O5  IDS B   5     -19.270  48.048  14.8490  0.00  0.00     0.000 O
ATOM     85   O  IDS B   5     -17.842  45.055  15.8210  0.00  0.00     0.000 O
ATOM     87  HD  IDS B   5     -17.522  45.691  15.3280  0.00  0.00     0.000 HD
BRANCH 80 87
ATOM     87   O  IDS B   5     -18.227  48.122  17.5350  0.00  0.00     0.000 O
ATOM     88  @S  IDS B   5     -18.234  48.408  19.0390  0.00  0.00     0.000 S
ATOM     89   O  IDS B   5     -17.584  47.294  19.6290  0.00  0.00     0.000 OA
ATOM     90   O  IDS B   5     -17.540  49.638  19.1930  0.00  0.00     0.000 OA
ATOM     91   O  IDS B   5     -19.601  48.517  19.4110  0.00  0.00     0.000 OA
ENDBRANCH 80 87
BRANCH 83 92
ATOM     92 @CA  IDS B   5     -18.053  47.867  12.7340  0.00  0.00     0.000 C
ATOM     93   O  IDS B   5     -18.638  48.881  12.3430  0.00  0.00     0.000 OA
ATOM     94   O  IDS B   5     -17.245  47.323  11.9720  0.00  0.00     0.000 OA
ENDBRANCH 83 92
BRANCH 79 95
ATOM     95  O4  SGN B   6     -20.525  46.250  15.6360  0.00  0.00     0.000 O
BRANCH 95 99
ATOM     96  C1  SGN B   6     -24.386  45.831  14.1790  0.00  0.00     0.000 C
ATOM     97  C2  SGN B   6     -23.266  45.619  13.1680  0.00  0.00     0.000 C
ATOM     98  C3  SGN B   6     -22.013  45.269  13.9710  0.00  0.00     0.000 C
ATOM     99  C4  SGN B   6     -21.666  46.512  14.8380  0.00  0.00     0.000 C
ATOM    100  C5  SGN B   6     -22.885  46.758  15.7720  0.00  0.00     0.000 C
ATOM    101  O5  SGN B   6     -24.087  46.924  15.0240  0.00  0.00     0.000 O
BRANCH 97 104
ATOM    102   N  SGN B   6     -24.111  46.094  12.0680  0.00  0.00     0.000 N
ATOM    104  HD  SGN B   6     -24.805  45.582  11.9910  0.00  0.00     0.000 HD
ATOM    104 @NS  SGN B   6     -24.301  45.093  10.7580  0.00  0.00     0.000 S
ATOM    105   O  SGN B   6     -23.568  43.875  11.0260  0.00  0.00     0.000 OA
ATOM    106   O  SGN B   6     -25.720  44.857  10.6170  0.00  0.00     0.000 OA
ATOM    107   O  SGN B   6     -23.745  45.804   9.6280  0.00  0.00     0.000 OA
ENDBRANCH 97 104
BRANCH 100 108
ATOM    108   C  SGN B   6     -22.792  47.971  16.6910  0.00  0.00     0.000 C
ATOM    109   O  SGN B   6     -23.091  49.134  15.9600  0.00  0.00     0.000 O
ATOM    110  @S  SGN B   6     -23.102  50.599  16.5280  0.00  0.00     0.000 S
ATOM    111   O  SGN B   6     -21.967  50.690  17.4140  0.00  0.00     0.000 OA
ATOM    112   O  SGN B   6     -22.975  51.486  15.3820  0.00  0.00     0.000 OA
ATOM    113   O  SGN B   6     -24.364  50.742  17.2190  0.00  0.00     0.000 OA
ENDBRANCH 100 108
ENDBRANCH 95 99
ENDBRANCH 79 95
ENDBRANCH 78 82
ENDBRANCH 58 78
ENDBRANCH 57 61
ENDBRANCH 41 57
ENDBRANCH 40 44
ENDBRANCH 20 40
ENDBRANCH 19 23
ENDBRANCH 1 19
TORSDOF 22
ENDMDL
MODEL 33
REMARK VINA RESULT:      -1.3      5.732     14.833
ROOT
ATOM      1  C1  IDS B   1     -20.392  47.418  16.0480  0.00  0.00     0.000 C
ATOM      2  C2  IDS B   1     -19.749  47.276  17.4030  0.00  0.00     0.000 C
ATOM      3  C3  IDS B   1     -20.677  47.492  18.6220  0.00  0.00     0.000 C
ATOM      4  C4  IDS B   1     -22.185  47.138  18.3400  0.00  0.00     0.000 C
ATOM      5  C5  IDS B   1     -22.574  47.326  16.8540  0.00  0.00     0.000 C
ATOM      6  O5  IDS B   1     -21.619  46.719  16.0250  0.00  0.00     0.000 O
ATOM      7   O  IDS B   1     -20.537  48.851  19.0230  0.00  0.00     0.000 O
ATOM      9  HD  IDS B   1     -21.305  48.549  19.2880  0.00  0.00     0.000 HD
ATOM      9   O  IDS B   1     -22.376  45.781  18.6710  0.00  0.00     0.000 O
ATOM     11  HD  IDS B   1     -23.143  45.478  18.9360  0.00  0.00     0.000 HD
ENDROOT
BRANCH 2 11
ATOM     11   O  IDS B   1     -19.217  46.003  17.5350  0.00  0.00     0.000 O
ATOM     12  @S  IDS B   1     -18.552  45.466  18.8170  0.00  0.00     0.000 S
ATOM     13   O  IDS B   1     -18.061  46.658  19.4790  0.00  0.00     0.000 OA
ATOM     14   O  IDS B   1     -19.593  44.795  19.5760  0.00  0.00     0.000 OA
ATOM     15   O  IDS B   1     -17.509  44.563  18.3730  0.00  0.00     0.000 OA
ENDBRANCH 2 11
BRANCH 5 16
ATOM     16 @CA  IDS B   1     -23.972  46.866  16.4520  0.00  0.00     0.000 C
ATOM     17   O  IDS B   1     -24.251  45.674  16.3410  0.00  0.00     0.000 OA
ATOM     18   O  IDS B   1     -24.862  47.686  16.2410  0.00  0.00     0.000 OA
ENDBRANCH 5 16
BRANCH 1 19
ATOM     19  O4  SGN B   2     -20.591  48.794  15.8010  0.00  0.00     0.000 O
BRANCH 19 23
ATOM     20  C1  SGN B   2     -20.388  51.007  12.3630  0.00  0.00     0.000 C
ATOM     21  C2  SGN B   2     -21.695  50.332  12.7160  0.00  0.00     0.000 C
ATOM     22  C3  SGN B   2     -21.752  50.104  14.1830  0.00  0.00     0.000 C
ATOM     23  C4  SGN B   2     -20.616  49.148  14.4650  0.00  0.00     0.000 C
ATOM     24  C5  SGN B   2     -19.375  49.918  14.1710  0.00  0.00     0.000 C
ATOM     25  O5  SGN B   2     -19.316  50.195  12.8190  0.00  0.00     0.000 O
ATOM     26   O  SGN B   2     -22.965  49.524  14.5130  0.00  0.00     0.000 O
ATOM     28  HD  SGN B   2     -23.617  49.001  14.7390  0.00  0.00     0.000 HD
BRANCH 21 30
ATOM     28   N  SGN B   2     -22.012  51.318  11.7250  0.00  0.00     0.000 N
ATOM     30  HD  SGN B   2     -22.574  51.790  12.1860  0.00  0.00     0.000 HD
ATOM     30 @NS  SGN B   2     -23.197  50.953  10.6750  0.00  0.00     0.000 S
ATOM     31   O  SGN B   2     -23.808  49.727  11.0660  0.00  0.00     0.000 OA
ATOM     32   O  SGN B   2     -24.087  52.033  10.7920  0.00  0.00     0.000 OA
ATOM     33   O  SGN B   2     -22.580  50.834   9.4080  0.00  0.00     0.000 OA
ENDBRANCH 21 30
BRANCH 24 34
ATOM     34   C  SGN B   2     -18.105  49.237  14.5260  0.00  0.00     0.000 C
ATOM     35   O  SGN B   2     -17.719  48.480  13.4340  0.00  0.00     0.000 O
ATOM     36  @S  SGN B   2     -16.359  47.801  13.3210  0.00  0.00     0.000 S
ATOM     37   O  SGN B   2     -16.574  46.479  13.8740  0.00  0.00     0.000 OA
ATOM     38   O  SGN B   2     -16.014  47.793  11.9180  0.00  0.00     0.000 OA
ATOM     39   O  SGN B   2     -15.453  48.628  14.1060  0.00  0.00     0.000 OA
ENDBRANCH 24 34
BRANCH 20 40
ATOM     40  O4  IDS B   3     -20.330  52.283  12.9230  0.00  0.00     0.000 O
BRANCH 40 44
ATOM     41  C1  IDS B   3     -19.382  55.622  12.4180  0.00  0.00     0.000 C
ATOM     42  C2  IDS B   3     -19.423  54.643  11.2470  0.00  0.00     0.000 C
ATOM     43  C3  IDS B   3     -18.756  53.276  11.4980  0.00  0.00     0.000 C
ATOM     44  C4  IDS B   3     -19.036  52.786  12.9040  0.00  0.00     0.000 C
ATOM     45  C5  IDS B   3     -18.891  53.907  13.9460  0.00  0.00     0.000 C
ATOM     46  O5  IDS B   3     -19.721  54.965  13.6300  0.00  0.00     0.000 O
ATOM     47   O  IDS B   3     -17.358  53.402  11.3420  0.00  0.00     0.000 O
ATOM     49  HD  IDS B   3     -18.120  52.989  11.3470  0.00  0.00     0.000 HD
BRANCH 42 49
ATOM     49   O  IDS B   3     -20.761  54.395  10.9210  0.00  0.00     0.000 O
ATOM     50   O  IDS B   3     -20.638  55.863   9.0830  0.00  0.00     0.000 OA
ATOM     51   O  IDS B   3     -21.872  53.854   8.8720  0.00  0.00     0.000 OA
ATOM     52   O  IDS B   3     -22.642  55.583  10.2820  0.00  0.00     0.000 OA
ATOM     53  @S  IDS B   3     -21.521  54.954   9.7150  0.00  0.00     0.000 S
ENDBRANCH 42 49
BRANCH 45 54
ATOM     54 @CA  IDS B   3     -19.123  53.486  15.3950  0.00  0.00     0.000 C
ATOM     55   O  IDS B   3     -18.296  52.874  16.0140  0.00  0.00     0.000 OA
ATOM     56   O  IDS B   3     -20.123  53.771  15.9680  0.00  0.00     0.000 OA
ENDBRANCH 45 54
BRANCH 41 57
ATOM     57  O4  SGN B   4     -18.126  56.212  12.4870  0.00  0.00     0.000 O
BRANCH 57 61
ATOM     58  C1  SGN B   4     -16.423  59.947  12.8810  0.00  0.00     0.000 C
ATOM     59  C2  SGN B   4     -16.900  59.304  14.1720  0.00  0.00     0.000 C
ATOM     60  C3  SGN B   4     -17.136  57.812  13.9510  0.00  0.00     0.000 C
ATOM     61  C4  SGN B   4     -18.111  57.573  12.7930  0.00  0.00     0.000 C
ATOM     62  C5  SGN B   4     -17.589  58.332  11.5770  0.00  0.00     0.000 C
ATOM     63  O5  SGN B   4     -17.389  59.702  11.8730  0.00  0.00     0.000 O
ATOM     64   O  SGN B   4     -17.691  57.260  15.1270  0.00  0.00     0.000 O
ATOM     66  HD  SGN B   4     -18.472  56.894  15.0490  0.00  0.00     0.000 HD
BRANCH 59 68
ATOM     66   N  SGN B   4     -17.056  60.291  15.2200  0.00  0.00     0.000 N
ATOM     68  HD  SGN B   4     -17.165  60.249  14.3620  0.00  0.00     0.000 HD
ATOM     68 @NS  SGN B   4     -15.734  61.002  15.8810  0.00  0.00     0.000 S
ATOM     69   O  SGN B   4     -14.698  60.016  15.9850  0.00  0.00     0.000 OA
ATOM     70   O  SGN B   4     -15.359  62.058  14.9860  0.00  0.00     0.000 OA
ATOM     71   O  SGN B   4     -16.183  61.470  17.1570  0.00  0.00     0.000 OA
ENDBRANCH 59 68
BRANCH 62 72
ATOM     72   C  SGN B   4     -18.540  58.276  10.3910  0.00  0.00     0.000 C
ATOM     73   O  SGN B   4     -19.767  58.736  10.8740  0.00  0.00     0.000 O
ATOM     74  @S  SGN B   4     -20.851  59.503  10.0960  0.00  0.00     0.000 S
ATOM     75   O  SGN B   4     -21.237  58.693   9.0000  0.00  0.00     0.000 OA
ATOM     76   O  SGN B   4     -21.910  59.673  11.0450  0.00  0.00     0.000 OA
ATOM     77   O  SGN B   4     -20.235  60.710   9.6580  0.00  0.00     0.000 OA
ENDBRANCH 62 72
BRANCH 58 78
ATOM     78  O4  IDS B   5     -15.147  59.450  12.5320  0.00  0.00     0.000 O
BRANCH 78 82
ATOM     79  C1  IDS B   5     -11.933  58.747  11.4470  0.00  0.00     0.000 C
ATOM     80  C2  IDS B   5     -12.133  59.346  12.8060  0.00  0.00     0.000 C
ATOM     81  C3  IDS B   5     -13.032  60.580  12.8090  0.00  0.00     0.000 C
ATOM     82  C4  IDS B   5     -14.274  60.401  11.9600  0.00  0.00     0.000 C
ATOM     83  C5  IDS B   5     -13.835  59.906  10.6190  0.00  0.00     0.000 C
ATOM     84  O5  IDS B   5     -13.173  58.664  10.7670  0.00  0.00     0.000 O
ATOM     85   O  IDS B   5     -12.296  61.650  12.2680  0.00  0.00     0.000 O
ATOM     87  HD  IDS B   5     -13.074  61.354  12.0270  0.00  0.00     0.000 HD
BRANCH 80 87
ATOM     87   O  IDS B   5     -12.738  58.408  13.6050  0.00  0.00     0.000 O
ATOM     88  @S  IDS B   5     -12.092  57.611  14.7410  0.00  0.00     0.000 S
ATOM     89   O  IDS B   5     -11.502  58.586  15.5850  0.00  0.00     0.000 OA
ATOM     90   O  IDS B   5     -13.154  56.883  15.3430  0.00  0.00     0.000 OA
ATOM     91   O  IDS B   5     -11.139  56.755  14.1270  0.00  0.00     0.000 OA
ENDBRANCH 80 87
BRANCH 83 92
ATOM     92 @CA  IDS B   5     -14.956  59.854   9.5880  0.00  0.00     0.000 C
ATOM     93   O  IDS B   5     -15.688  60.828   9.3960  0.00  0.00     0.000 OA
ATOM     94   O  IDS B   5     -15.155  58.829   8.9250  0.00  0.00     0.000 OA
ENDBRANCH 83 92
BRANCH 79 95
ATOM     95  O4  SGN B   6     -10.997  59.493  10.7440  0.00  0.00     0.000 O
BRANCH 95 99
ATOM     96  C1  SGN B   6      -9.336  59.324   6.9460  0.00  0.00     0.000 C
ATOM     97  C2  SGN B   6     -10.720  59.957   7.0410  0.00  0.00     0.000 C
ATOM     98  C3  SGN B   6     -10.890  60.417   8.4890  0.00  0.00     0.000 C
ATOM     99  C4  SGN B   6     -10.870  59.141   9.3780  0.00  0.00     0.000 C
ATOM    100  C5  SGN B   6      -9.485  58.468   9.1590  0.00  0.00     0.000 C
ATOM    101  O5  SGN B   6      -9.257  58.185   7.7810  0.00  0.00     0.000 O
BRANCH 97 104
ATOM    102   N  SGN B   6     -10.361  60.540   5.7450  0.00  0.00     0.000 N
ATOM    104  HD  SGN B   6     -10.789  61.285   5.6330  0.00  0.00     0.000 HD
ATOM    104 @NS  SGN B   6     -11.560  60.680   4.6070  0.00  0.00     0.000 S
ATOM    105   O  SGN B   6     -12.787  60.192   5.2000  0.00  0.00     0.000 OA
ATOM    106   O  SGN B   6     -11.641  62.079   4.2570  0.00  0.00     0.000 OA
ATOM    107   O  SGN B   6     -11.151  59.855   3.4920  0.00  0.00     0.000 OA
ENDBRANCH 97 104
BRANCH 100 108
ATOM    108   C  SGN B   6      -9.253  57.157   9.9000  0.00  0.00     0.000 C
ATOM    109   O  SGN B   6      -9.682  56.085   9.0980  0.00  0.00     0.000 O
ATOM    110  @S  SGN B   6      -9.625  54.563   9.4890  0.00  0.00     0.000 S
ATOM    111   O  SGN B   6     -10.004  54.497  10.8800  0.00  0.00     0.000 OA
ATOM    112   O  SGN B   6     -10.578  53.882   8.6280  0.00  0.00     0.000 OA
ATOM    113   O  SGN B   6      -8.258  54.152   9.2620  0.00  0.00     0.000 OA
ENDBRANCH 100 108
ENDBRANCH 95 99
ENDBRANCH 79 95
ENDBRANCH 78 82
ENDBRANCH 58 78
ENDBRANCH 57 61
ENDBRANCH 41 57
ENDBRANCH 40 44
ENDBRANCH 20 40
ENDBRANCH 19 23
ENDBRANCH 1 19
TORSDOF 22
ENDMDL
MODEL 34
REMARK VINA RESULT:      -1.2      3.235      5.194
ROOT
ATOM      1  C1  IDS B   1     -14.269  49.533  11.2990  0.00  0.00     0.000 C
ATOM      2  C2  IDS B   1     -14.225  48.205  10.5890  0.00  0.00     0.000 C
ATOM      3  C3  IDS B   1     -14.265  48.259   9.0430  0.00  0.00     0.000 C
ATOM      4  C4  IDS B   1     -13.661  49.582   8.4390  0.00  0.00     0.000 C
ATOM      5  C5  IDS B   1     -13.796  50.790   9.3970  0.00  0.00     0.000 C
ATOM      6  O5  IDS B   1     -13.371  50.434  10.6850  0.00  0.00     0.000 O
ATOM      7   O  IDS B   1     -15.624  48.091   8.6500  0.00  0.00     0.000 O
ATOM      9  HD  IDS B   1     -15.191  48.509   8.0260  0.00  0.00     0.000 HD
ATOM      9   O  IDS B   1     -12.288  49.360   8.2100  0.00  0.00     0.000 O
ATOM     11  HD  IDS B   1     -11.855  49.777   7.5860  0.00  0.00     0.000 HD
ENDROOT
BRANCH 2 11
ATOM     11   O  IDS B   1     -13.060  47.534  10.9280  0.00  0.00     0.000 O
ATOM     12  @S  IDS B   1     -13.017  46.184  11.6680  0.00  0.00     0.000 S
ATOM     13   O  IDS B   1     -14.252  46.164  12.4250  0.00  0.00     0.000 OA
ATOM     14   O  IDS B   1     -12.971  45.151  10.6490  0.00  0.00     0.000 OA
ATOM     15   O  IDS B   1     -11.821  46.220  12.4870  0.00  0.00     0.000 OA
ENDBRANCH 2 11
BRANCH 5 16
ATOM     16 @CA  IDS B   1     -13.107  52.082   8.9660  0.00  0.00     0.000 C
ATOM     17   O  IDS B   1     -13.124  53.088   9.6720  0.00  0.00     0.000 OA
ATOM     18   O  IDS B   1     -12.503  52.140   7.8980  0.00  0.00     0.000 OA
ENDBRANCH 5 16
BRANCH 1 19
ATOM     19  O4  SGN B   2     -15.594  50.019  11.2330  0.00  0.00     0.000 O
BRANCH 19 23
ATOM     20  C1  SGN B   2     -18.159  51.390  14.1140  0.00  0.00     0.000 C
ATOM     21  C2  SGN B   2     -16.693  51.749  14.2160  0.00  0.00     0.000 C
ATOM     22  C3  SGN B   2     -16.074  51.687  12.8660  0.00  0.00     0.000 C
ATOM     23  C4  SGN B   2     -16.195  50.236  12.4580  0.00  0.00     0.000 C
ATOM     24  C5  SGN B   2     -17.657  49.996  12.3010  0.00  0.00     0.000 C
ATOM     25  O5  SGN B   2     -18.274  50.099  13.5330  0.00  0.00     0.000 O
ATOM     26   O  SGN B   2     -14.742  52.055  12.9520  0.00  0.00     0.000 O
ATOM     28  HD  SGN B   2     -13.878  52.096  12.9850  0.00  0.00     0.000 HD
BRANCH 21 30
ATOM     28   N  SGN B   2     -16.728  51.688  15.6480  0.00  0.00     0.000 N
ATOM     30  HD  SGN B   2     -17.587  51.699  15.7580  0.00  0.00     0.000 HD
ATOM     30 @NS  SGN B   2     -16.617  53.097  16.4490  0.00  0.00     0.000 S
ATOM     31   O  SGN B   2     -16.659  54.172  15.5150  0.00  0.00     0.000 OA
ATOM     32   O  SGN B   2     -17.748  53.094  17.2820  0.00  0.00     0.000 OA
ATOM     33   O  SGN B   2     -15.381  53.066  17.1350  0.00  0.00     0.000 OA
ENDBRANCH 21 30
BRANCH 24 34
ATOM     34   C  SGN B   2     -18.027  48.670  11.7460  0.00  0.00     0.000 C
ATOM     35   O  SGN B   2     -18.622  48.883  10.5160  0.00  0.00     0.000 O
ATOM     36  @S  SGN B   2     -18.949  47.764   9.5350  0.00  0.00     0.000 S
ATOM     37   O  SGN B   2     -20.306  47.381   9.8700  0.00  0.00     0.000 OA
ATOM     38   O  SGN B   2     -18.816  48.322   8.2090  0.00  0.00     0.000 OA
ATOM     39   O  SGN B   2     -17.962  46.726   9.7970  0.00  0.00     0.000 OA
ENDBRANCH 24 34
BRANCH 20 40
ATOM     40  O4  IDS B   3     -18.845  52.345  13.3640  0.00  0.00     0.000 O
BRANCH 40 44
ATOM     41  C1  IDS B   3     -21.588  54.522  13.1570  0.00  0.00     0.000 C
ATOM     42  C2  IDS B   3     -21.201  53.887  14.4910  0.00  0.00     0.000 C
ATOM     43  C3  IDS B   3     -20.921  52.373  14.4520  0.00  0.00     0.000 C
ATOM     44  C4  IDS B   3     -20.176  51.991  13.1880  0.00  0.00     0.000 C
ATOM     45  C5  IDS B   3     -20.748  52.692  11.9460  0.00  0.00     0.000 C
ATOM     46  O5  IDS B   3     -20.734  54.062  12.1190  0.00  0.00     0.000 O
ATOM     47   O  IDS B   3     -22.145  51.669  14.4740  0.00  0.00     0.000 O
ATOM     49  HD  IDS B   3     -21.297  51.785  14.6050  0.00  0.00     0.000 HD
BRANCH 42 49
ATOM     49   O  IDS B   3     -20.039  54.510  14.9590  0.00  0.00     0.000 O
ATOM     50   O  IDS B   3     -21.225  56.491  15.4200  0.00  0.00     0.000 OA
ATOM     51   O  IDS B   3     -19.542  55.780  16.9250  0.00  0.00     0.000 OA
ATOM     52   O  IDS B   3     -18.965  56.552  14.7700  0.00  0.00     0.000 OA
ATOM     53  @S  IDS B   3     -19.938  55.915  15.5580  0.00  0.00     0.000 S
ENDBRANCH 42 49
BRANCH 45 54
ATOM     54 @CA  IDS B   3     -20.074  52.333  10.6240  0.00  0.00     0.000 C
ATOM     55   O  IDS B   3     -20.703  52.213   9.6080  0.00  0.00     0.000 OA
ATOM     56   O  IDS B   3     -18.899  52.183  10.5520  0.00  0.00     0.000 OA
ENDBRANCH 45 54
BRANCH 41 57
ATOM     57  O4  SGN B   4     -22.922  54.250  12.8810  0.00  0.00     0.000 O
BRANCH 57 61
ATOM     58  C1  SGN B   4     -26.117  55.827  10.8070  0.00  0.00     0.000 C
ATOM     59  C2  SGN B   4     -24.871  55.553   9.9820  0.00  0.00     0.000 C
ATOM     60  C3  SGN B   4     -23.932  54.632  10.7560  0.00  0.00     0.000 C
ATOM     61  C4  SGN B   4     -23.595  55.215  12.1330  0.00  0.00     0.000 C
ATOM     62  C5  SGN B   4     -24.910  55.538  12.8370  0.00  0.00     0.000 C
ATOM     63  O5  SGN B   4     -25.722  56.387  12.0480  0.00  0.00     0.000 O
ATOM     64   O  SGN B   4     -22.732  54.487  10.0240  0.00  0.00     0.000 O
ATOM     66  HD  SGN B   4     -22.006  54.747  10.4190  0.00  0.00     0.000 HD
BRANCH 59 68
ATOM     66   N  SGN B   4     -25.380  54.934   8.7760  0.00  0.00     0.000 N
ATOM     68  HD  SGN B   4     -24.608  55.088   9.1370  0.00  0.00     0.000 HD
ATOM     68 @NS  SGN B   4     -25.958  55.865   7.5560  0.00  0.00     0.000 S
ATOM     69   O  SGN B   4     -26.658  56.976   8.1320  0.00  0.00     0.000 OA
ATOM     70   O  SGN B   4     -24.813  56.301   6.8100  0.00  0.00     0.000 OA
ATOM     71   O  SGN B   4     -26.818  54.991   6.8190  0.00  0.00     0.000 OA
ENDBRANCH 59 68
BRANCH 62 72
ATOM     72   C  SGN B   4     -24.709  56.243  14.1700  0.00  0.00     0.000 C
ATOM     73   O  SGN B   4     -25.292  55.410  15.1270  0.00  0.00     0.000 O
ATOM     74  @S  SGN B   4     -24.865  55.225  16.5930  0.00  0.00     0.000 S
ATOM     75   O  SGN B   4     -24.928  56.496  17.2150  0.00  0.00     0.000 OA
ATOM     76   O  SGN B   4     -25.829  54.312  17.1280  0.00  0.00     0.000 OA
ATOM     77   O  SGN B   4     -23.529  54.734  16.5500  0.00  0.00     0.000 OA
ENDBRANCH 62 72
BRANCH 58 78
ATOM     78  O4  IDS B   5     -26.866  54.640  10.9680  0.00  0.00     0.000 O
BRANCH 78 82
ATOM     79  C1  IDS B   5     -29.135  52.023  10.9330  0.00  0.00     0.000 C
ATOM     80  C2  IDS B   5     -28.710  52.641   9.6360  0.00  0.00     0.000 C
ATOM     81  C3  IDS B   5     -28.809  54.164   9.6180  0.00  0.00     0.000 C
ATOM     82  C4  IDS B   5     -28.265  54.801  10.8800  0.00  0.00     0.000 C
ATOM     83  C5  IDS B   5     -28.903  54.110  12.0440  0.00  0.00     0.000 C
ATOM     84  O5  IDS B   5     -28.569  52.735  12.0190  0.00  0.00     0.000 O
ATOM     85   O  IDS B   5     -30.170  54.505   9.5200  0.00  0.00     0.000 O
ATOM     87  HD  IDS B   5     -29.589  54.769  10.1050  0.00  0.00     0.000 HD
BRANCH 80 87
ATOM     87   O  IDS B   5     -27.392  52.323   9.4200  0.00  0.00     0.000 O
ATOM     88  @S  IDS B   5     -26.833  50.975   8.9560  0.00  0.00     0.000 S
ATOM     89   O  IDS B   5     -27.555  50.665   7.7760  0.00  0.00     0.000 OA
ATOM     90   O  IDS B   5     -25.444  51.193   8.7510  0.00  0.00     0.000 OA
ATOM     91   O  IDS B   5     -27.080  50.062  10.0170  0.00  0.00     0.000 OA
ENDBRANCH 80 87
BRANCH 83 92
ATOM     92 @CA  IDS B   5     -28.599  54.764  13.3870  0.00  0.00     0.000 C
ATOM     93   O  IDS B   5     -28.053  54.129  14.2920  0.00  0.00     0.000 OA
ATOM     94   O  IDS B   5     -28.900  55.945  13.5940  0.00  0.00     0.000 OA
ENDBRANCH 83 92
BRANCH 79 95
ATOM     95  O4  SGN B   6     -30.521  51.983  10.9960  0.00  0.00     0.000 O
BRANCH 95 99
ATOM     96  C1  SGN B   6     -33.350  49.913  13.2150  0.00  0.00     0.000 C
ATOM     97  C2  SGN B   6     -32.565  50.982  13.9670  0.00  0.00     0.000 C
ATOM     98  C3  SGN B   6     -32.029  51.952  12.9130  0.00  0.00     0.000 C
ATOM     99  C4  SGN B   6     -31.040  51.152  12.0180  0.00  0.00     0.000 C
ATOM    100  C5  SGN B   6     -31.861  50.003  11.3650  0.00  0.00     0.000 C
ATOM    101  O5  SGN B   6     -32.495  49.192  12.3490  0.00  0.00     0.000 O
BRANCH 97 104
ATOM    102   N  SGN B   6     -33.420  51.618  14.9730  0.00  0.00     0.000 N
ATOM    104  HD  SGN B   6     -32.927  52.009  15.5690  0.00  0.00     0.000 HD
ATOM    104 @NS  SGN B   6     -33.334  51.046  16.5280  0.00  0.00     0.000 S
ATOM    105   O  SGN B   6     -32.340  49.995  16.5540  0.00  0.00     0.000 OA
ATOM    106   O  SGN B   6     -32.967  52.165  17.3640  0.00  0.00     0.000 OA
ATOM    107   O  SGN B   6     -34.650  50.533  16.8380  0.00  0.00     0.000 OA
ENDBRANCH 97 104
BRANCH 100 108
ATOM    108   C  SGN B   6     -31.080  49.046  10.4720  0.00  0.00     0.000 C
ATOM    109   O  SGN B   6     -30.816  47.859  11.1790  0.00  0.00     0.000 O
ATOM    110  @S  SGN B   6     -30.031  46.615  10.6260  0.00  0.00     0.000 S
ATOM    111   O  SGN B   6     -28.928  47.150   9.8630  0.00  0.00     0.000 OA
ATOM    112   O  SGN B   6     -29.580  45.865  11.7870  0.00  0.00     0.000 OA
ATOM    113   O  SGN B   6     -30.975  45.887   9.8090  0.00  0.00     0.000 OA
ENDBRANCH 100 108
ENDBRANCH 95 99
ENDBRANCH 79 95
ENDBRANCH 78 82
ENDBRANCH 58 78
ENDBRANCH 57 61
ENDBRANCH 41 57
ENDBRANCH 40 44
ENDBRANCH 20 40
ENDBRANCH 19 23
ENDBRANCH 1 19
TORSDOF 22
ENDMDL
MODEL 35
REMARK VINA RESULT:      -1.2      4.102     11.499
ROOT
ATOM      1  C1  IDS B   1     -24.127  54.925  10.1080  0.00  0.00     0.000 C
ATOM      2  C2  IDS B   1     -24.618  53.543  10.4490  0.00  0.00     0.000 C
ATOM      3  C3  IDS B   1     -25.366  53.399  11.7960  0.00  0.00     0.000 C
ATOM      4  C4  IDS B   1     -26.099  54.714  12.2570  0.00  0.00     0.000 C
ATOM      5  C5  IDS B   1     -25.413  55.997  11.7270  0.00  0.00     0.000 C
ATOM      6  O5  IDS B   1     -25.148  55.870  10.3560  0.00  0.00     0.000 O
ATOM      7   O  IDS B   1     -24.411  52.980  12.7660  0.00  0.00     0.000 O
ATOM      9  HD  IDS B   1     -25.070  53.378  13.1620  0.00  0.00     0.000 HD
ATOM      9   O  IDS B   1     -27.410  54.677  11.7390  0.00  0.00     0.000 O
ATOM     11  HD  IDS B   1     -28.069  55.076  12.1350  0.00  0.00     0.000 HD
ENDROOT
BRANCH 2 11
ATOM     11   O  IDS B   1     -25.492  53.103   9.4670  0.00  0.00     0.000 O
ATOM     12  @S  IDS B   1     -25.973  51.647   9.3160  0.00  0.00     0.000 S
ATOM     13   O  IDS B   1     -24.902  50.866   9.9020  0.00  0.00     0.000 OA
ATOM     14   O  IDS B   1     -27.214  51.538  10.0610  0.00  0.00     0.000 OA
ATOM     15   O  IDS B   1     -26.150  51.435   7.8930  0.00  0.00     0.000 OA
ENDBRANCH 2 11
BRANCH 5 16
ATOM     16 @CA  IDS B   1     -26.133  57.315  11.9940  0.00  0.00     0.000 C
ATOM     17   O  IDS B   1     -25.672  58.158  12.7600  0.00  0.00     0.000 OA
ATOM     18   O  IDS B   1     -27.195  57.570  11.4300  0.00  0.00     0.000 OA
ENDBRANCH 5 16
BRANCH 1 19
ATOM     19  O4  SGN B   2     -22.990  55.193  10.9020  0.00  0.00     0.000 O
BRANCH 19 23
ATOM     20  C1  SGN B   2     -19.536  57.272  10.1890  0.00  0.00     0.000 C
ATOM     21  C2  SGN B   2     -20.800  58.045  10.4950  0.00  0.00     0.000 C
ATOM     22  C3  SGN B   2     -21.732  57.183  11.2670  0.00  0.00     0.000 C
ATOM     23  C4  SGN B   2     -22.068  56.048  10.3280  0.00  0.00     0.000 C
ATOM     24  C5  SGN B   2     -20.794  55.297  10.1510  0.00  0.00     0.000 C
ATOM     25  O5  SGN B   2     -19.883  56.091   9.4800  0.00  0.00     0.000 O
ATOM     26   O  SGN B   2     -22.872  57.903  11.5830  0.00  0.00     0.000 O
ATOM     28  HD  SGN B   2     -23.665  58.247  11.6410  0.00  0.00     0.000 HD
BRANCH 21 30
ATOM     28   N  SGN B   2     -19.884  58.950   9.8630  0.00  0.00     0.000 N
ATOM     30  HD  SGN B   2     -19.215  58.858  10.4060  0.00  0.00     0.000 HD
ATOM     30 @NS  SGN B   2     -19.992  60.517  10.2790  0.00  0.00     0.000 S
ATOM     31   O  SGN B   2     -20.922  60.655  11.3480  0.00  0.00     0.000 OA
ATOM     32   O  SGN B   2     -18.687  60.841  10.6850  0.00  0.00     0.000 OA
ATOM     33   O  SGN B   2     -20.436  61.203   9.1240  0.00  0.00     0.000 OA
ENDBRANCH 21 30
BRANCH 24 34
ATOM     34   C  SGN B   2     -20.903  54.030   9.3850  0.00  0.00     0.000 C
ATOM     35   O  SGN B   2     -20.457  53.008  10.2040  0.00  0.00     0.000 O
ATOM     36  @S  SGN B   2     -20.610  51.531   9.8630  0.00  0.00     0.000 S
ATOM     37   O  SGN B   2     -19.385  51.198   9.1620  0.00  0.00     0.000 OA
ATOM     38   O  SGN B   2     -20.769  50.830  11.1150  0.00  0.00     0.000 OA
ATOM     39   O  SGN B   2     -21.803  51.452   9.0320  0.00  0.00     0.000 OA
ENDBRANCH 24 34
BRANCH 20 40
ATOM     40  O4  IDS B   3     -18.850  56.973  11.3660  0.00  0.00     0.000 O
BRANCH 40 44
ATOM     41  C1  IDS B   3     -16.286  56.870  13.7570  0.00  0.00     0.000 C
ATOM     42  C2  IDS B   3     -16.610  58.170  13.0240  0.00  0.00     0.000 C
ATOM     43  C3  IDS B   3     -16.773  58.050  11.4960  0.00  0.00     0.000 C
ATOM     44  C4  IDS B   3     -17.497  56.772  11.1260  0.00  0.00     0.000 C
ATOM     45  C5  IDS B   3     -16.992  55.567  11.9350  0.00  0.00     0.000 C
ATOM     46  O5  IDS B   3     -17.111  55.814  13.2890  0.00  0.00     0.000 O
ATOM     47   O  IDS B   3     -15.497  58.029  10.8900  0.00  0.00     0.000 O
ATOM     49  HD  IDS B   3     -16.351  58.170  10.9320  0.00  0.00     0.000 HD
BRANCH 42 49
ATOM     49   O  IDS B   3     -17.813  58.677  13.5280  0.00  0.00     0.000 O
ATOM     50   O  IDS B   3     -16.653  60.101  15.0030  0.00  0.00     0.000 OA
ATOM     51   O  IDS B   3     -18.610  60.896  13.9340  0.00  0.00     0.000 OA
ATOM     52   O  IDS B   3     -18.752  59.207  15.5770  0.00  0.00     0.000 OA
ATOM     53  @S  IDS B   3     -17.965  59.789  14.5690  0.00  0.00     0.000 S
ENDBRANCH 42 49
BRANCH 45 54
ATOM     54 @CA  IDS B   3     -17.649  54.230  11.5960  0.00  0.00     0.000 C
ATOM     55   O  IDS B   3     -17.269  53.555  10.6780  0.00  0.00     0.000 OA
ATOM     56   O  IDS B   3     -18.546  53.802  12.2450  0.00  0.00     0.000 OA
ENDBRANCH 45 54
BRANCH 41 57
ATOM     57  O4  SGN B   4     -14.937  56.574  13.6050  0.00  0.00     0.000 O
BRANCH 57 61
ATOM     58  C1  SGN B   4     -14.992  53.552  16.4090  0.00  0.00     0.000 C
ATOM     59  C2  SGN B   4     -14.696  54.941  16.9470  0.00  0.00     0.000 C
ATOM     60  C3  SGN B   4     -15.086  55.992  15.9110  0.00  0.00     0.000 C
ATOM     61  C4  SGN B   4     -14.388  55.732  14.5710  0.00  0.00     0.000 C
ATOM     62  C5  SGN B   4     -14.673  54.288  14.1680  0.00  0.00     0.000 C
ATOM     63  O5  SGN B   4     -14.291  53.384  15.1880  0.00  0.00     0.000 O
ATOM     64   O  SGN B   4     -14.693  57.264  16.3830  0.00  0.00     0.000 O
ATOM     66  HD  SGN B   4     -14.129  57.699  15.8910  0.00  0.00     0.000 HD
BRANCH 59 68
ATOM     66   N  SGN B   4     -14.576  53.967  18.0130  0.00  0.00     0.000 N
ATOM     68  HD  SGN B   4     -15.116  54.131  17.3560  0.00  0.00     0.000 HD
ATOM     68 @NS  SGN B   4     -14.948  54.386  19.5540  0.00  0.00     0.000 S
ATOM     69   O  SGN B   4     -14.508  55.732  19.7730  0.00  0.00     0.000 OA
ATOM     70   O  SGN B   4     -16.374  54.281  19.6620  0.00  0.00     0.000 OA
ATOM     71   O  SGN B   4     -14.244  53.436  20.3600  0.00  0.00     0.000 OA
ENDBRANCH 59 68
BRANCH 62 72
ATOM     72   C  SGN B   4     -13.927  53.867  12.9110  0.00  0.00     0.000 C
ATOM     73   O  SGN B   4     -12.586  54.172  13.1520  0.00  0.00     0.000 O
ATOM     74  @S  SGN B   4     -11.347  53.435  12.6140  0.00  0.00     0.000 S
ATOM     75   O  SGN B   4     -11.418  53.464  11.2000  0.00  0.00     0.000 OA
ATOM     76   O  SGN B   4     -10.241  54.192  13.1170  0.00  0.00     0.000 OA
ATOM     77   O  SGN B   4     -11.441  52.103  13.1100  0.00  0.00     0.000 OA
ENDBRANCH 62 72
BRANCH 58 78
ATOM     78  O4  IDS B   5     -16.386  53.375  16.2560  0.00  0.00     0.000 O
BRANCH 78 82
ATOM     79  C1  IDS B   5     -19.733  52.484  16.2300  0.00  0.00     0.000 C
ATOM     80  C2  IDS B   5     -19.128  53.025  17.4900  0.00  0.00     0.000 C
ATOM     81  C3  IDS B   5     -17.825  52.339  17.8920  0.00  0.00     0.000 C
ATOM     82  C4  IDS B   5     -16.884  52.140  16.7220  0.00  0.00     0.000 C
ATOM     83  C5  IDS B   5     -17.663  51.489  15.6230  0.00  0.00     0.000 C
ATOM     84  O5  IDS B   5     -18.733  52.331  15.2390  0.00  0.00     0.000 O
ATOM     85   O  IDS B   5     -18.149  51.067  18.4010  0.00  0.00     0.000 O
ATOM     87  HD  IDS B   5     -17.591  51.270  17.7700  0.00  0.00     0.000 HD
BRANCH 80 87
ATOM     87   O  IDS B   5     -18.837  54.352  17.2930  0.00  0.00     0.000 O
ATOM     88  @S  IDS B   5     -19.469  55.550  18.0060  0.00  0.00     0.000 S
ATOM     89   O  IDS B   5     -19.322  55.274  19.3890  0.00  0.00     0.000 OA
ATOM     90   O  IDS B   5     -18.741  56.684  17.5570  0.00  0.00     0.000 OA
ATOM     91   O  IDS B   5     -20.826  55.586  17.5860  0.00  0.00     0.000 OA
ENDBRANCH 80 87
BRANCH 83 92
ATOM     92 @CA  IDS B   5     -16.806  51.052  14.4410  0.00  0.00     0.000 C
ATOM     93   O  IDS B   5     -17.204  51.195  13.2820  0.00  0.00     0.000 OA
ATOM     94   O  IDS B   5     -15.696  50.539  14.6230  0.00  0.00     0.000 OA
ENDBRANCH 83 92
BRANCH 79 95
ATOM     95  O4  SGN B   6     -20.388  51.291  16.5050  0.00  0.00     0.000 O
BRANCH 95 99
ATOM     96  C1  SGN B   6     -23.243  48.946  14.6180  0.00  0.00     0.000 C
ATOM     97  C2  SGN B   6     -21.872  48.992  13.9520  0.00  0.00     0.000 C
ATOM     98  C3  SGN B   6     -20.875  49.406  15.0350  0.00  0.00     0.000 C
ATOM     99  C4  SGN B   6     -21.256  50.848  15.4780  0.00  0.00     0.000 C
ATOM    100  C5  SGN B   6     -22.704  50.771  16.0420  0.00  0.00     0.000 C
ATOM    101  O5  SGN B   6     -23.608  50.231  15.0830  0.00  0.00     0.000 O
BRANCH 97 104
ATOM    102   N  SGN B   6     -22.686  48.278  12.9640  0.00  0.00     0.000 N
ATOM    104  HD  SGN B   6     -22.507  47.431  12.9960  0.00  0.00     0.000 HD
ATOM    104 @NS  SGN B   6     -21.894  47.520  11.7190  0.00  0.00     0.000 S
ATOM    105   O  SGN B   6     -20.474  47.716  11.9180  0.00  0.00     0.000 OA
ATOM    106   O  SGN B   6     -22.265  46.125  11.7780  0.00  0.00     0.000 OA
ATOM    107   O  SGN B   6     -22.348  48.162  10.5060  0.00  0.00     0.000 OA
ENDBRANCH 97 104
BRANCH 100 108
ATOM    108   C  SGN B   6     -23.316  52.091  16.4980  0.00  0.00     0.000 C
ATOM    109   O  SGN B   6     -23.328  52.996  15.4230  0.00  0.00     0.000 O
ATOM    110  @S  SGN B   6     -23.868  54.471  15.4690  0.00  0.00     0.000 S
ATOM    111   O  SGN B   6     -23.443  55.010  16.7380  0.00  0.00     0.000 OA
ATOM    112   O  SGN B   6     -23.259  55.167  14.3460  0.00  0.00     0.000 OA
ATOM    113   O  SGN B   6     -25.306  54.365  15.3600  0.00  0.00     0.000 OA
ENDBRANCH 100 108
ENDBRANCH 95 99
ENDBRANCH 79 95
ENDBRANCH 78 82
ENDBRANCH 58 78
ENDBRANCH 57 61
ENDBRANCH 41 57
ENDBRANCH 40 44
ENDBRANCH 20 40
ENDBRANCH 19 23
ENDBRANCH 1 19
TORSDOF 22
ENDMDL
MODEL 36
REMARK VINA RESULT:      -1.0      4.612     10.612
ROOT
ATOM      1  C1  IDS B   1     -18.489  56.983  13.9910  0.00  0.00     0.000 C
ATOM      2  C2  IDS B   1     -17.091  56.426  14.0320  0.00  0.00     0.000 C
ATOM      3  C3  IDS B   1     -16.472  56.040  12.6670  0.00  0.00     0.000 C
ATOM      4  C4  IDS B   1     -17.033  56.878  11.4580  0.00  0.00     0.000 C
ATOM      5  C5  IDS B   1     -18.480  57.373  11.6960  0.00  0.00     0.000 C
ATOM      6  O5  IDS B   1     -18.589  57.953  12.9680  0.00  0.00     0.000 O
ATOM      7   O  IDS B   1     -16.706  54.648  12.4770  0.00  0.00     0.000 O
ATOM      9  HD  IDS B   1     -16.596  55.031  11.7080  0.00  0.00     0.000 HD
ATOM      9   O  IDS B   1     -16.206  58.010  11.3020  0.00  0.00     0.000 O
ATOM     11  HD  IDS B   1     -16.097  58.393  10.5330  0.00  0.00     0.000 HD
ENDROOT
BRANCH 2 11
ATOM     11   O  IDS B   1     -16.235  57.356  14.6010  0.00  0.00     0.000 O
ATOM     12  @S  IDS B   1     -15.103  57.009  15.5880  0.00  0.00     0.000 S
ATOM     13   O  IDS B   1     -15.553  55.783  16.2150  0.00  0.00     0.000 OA
ATOM     14   O  IDS B   1     -13.902  56.821  14.7940  0.00  0.00     0.000 OA
ATOM     15   O  IDS B   1     -15.008  58.137  16.4930  0.00  0.00     0.000 OA
ENDBRANCH 2 11
BRANCH 5 16
ATOM     16 @CA  IDS B   1     -19.058  58.320  10.6470  0.00  0.00     0.000 C
ATOM     17   O  IDS B   1     -20.139  58.879  10.8100  0.00  0.00     0.000 OA
ATOM     18   O  IDS B   1     -18.439  58.555   9.6120  0.00  0.00     0.000 OA
ENDBRANCH 5 16
BRANCH 1 19
ATOM     19  O4  SGN B   2     -19.380  55.912  13.7580  0.00  0.00     0.000 O
BRANCH 19 23
ATOM     20  C1  SGN B   2     -22.968  54.899  15.4480  0.00  0.00     0.000 C
ATOM     21  C2  SGN B   2     -22.952  55.931  14.3410  0.00  0.00     0.000 C
ATOM     22  C3  SGN B   2     -21.742  55.734  13.5000  0.00  0.00     0.000 C
ATOM     23  C4  SGN B   2     -20.583  55.998  14.4330  0.00  0.00     0.000 C
ATOM     24  C5  SGN B   2     -20.627  54.896  15.4340  0.00  0.00     0.000 C
ATOM     25  O5  SGN B   2     -21.770  55.018  16.2010  0.00  0.00     0.000 O
ATOM     26   O  SGN B   2     -21.747  56.650  12.4630  0.00  0.00     0.000 O
ATOM     28  HD  SGN B   2     -21.614  57.311  11.9190  0.00  0.00     0.000 HD
BRANCH 21 30
ATOM     28   N  SGN B   2     -24.217  55.688  13.7120  0.00  0.00     0.000 N
ATOM     30  HD  SGN B   2     -24.117  56.195  13.0170  0.00  0.00     0.000 HD
ATOM     30 @NS  SGN B   2     -25.467  56.610  14.1920  0.00  0.00     0.000 S
ATOM     31   O  SGN B   2     -24.992  57.620  15.0760  0.00  0.00     0.000 OA
ATOM     32   O  SGN B   2     -25.950  57.160  12.9930  0.00  0.00     0.000 OA
ATOM     33   O  SGN B   2     -26.370  55.741  14.8470  0.00  0.00     0.000 OA
ENDBRANCH 21 30
BRANCH 24 34
ATOM     34   C  SGN B   2     -19.482  54.847  16.3770  0.00  0.00     0.000 C
ATOM     35   O  SGN B   2     -19.707  55.798  17.3570  0.00  0.00     0.000 O
ATOM     36  @S  SGN B   2     -18.868  55.913  18.6240  0.00  0.00     0.000 S
ATOM     37   O  SGN B   2     -17.820  56.852  18.2740  0.00  0.00     0.000 OA
ATOM     38   O  SGN B   2     -19.749  56.391  19.6640  0.00  0.00     0.000 OA
ATOM     39   O  SGN B   2     -18.386  54.564  18.8870  0.00  0.00     0.000 OA
ENDBRANCH 24 34
BRANCH 20 40
ATOM     40  O4  IDS B   3     -23.109  53.617  14.9190  0.00  0.00     0.000 O
BRANCH 40 44
ATOM     41  C1  IDS B   3     -24.131  50.309  14.3520  0.00  0.00     0.000 C
ATOM     42  C2  IDS B   3     -25.141  51.453  14.2950  0.00  0.00     0.000 C
ATOM     43  C3  IDS B   3     -25.074  52.460  15.4600  0.00  0.00     0.000 C
ATOM     44  C4  IDS B   3     -23.637  52.738  15.8550  0.00  0.00     0.000 C
ATOM     45  C5  IDS B   3     -22.794  51.455  15.9080  0.00  0.00     0.000 C
ATOM     46  O5  IDS B   3     -22.842  50.799  14.6930  0.00  0.00     0.000 O
ATOM     47   O  IDS B   3     -25.746  51.924  16.5810  0.00  0.00     0.000 O
ATOM     49  HD  IDS B   3     -25.433  52.550  16.0710  0.00  0.00     0.000 HD
BRANCH 42 49
ATOM     49   O  IDS B   3     -24.931  52.175  13.1150  0.00  0.00     0.000 O
ATOM     50   O  IDS B   3     -26.276  50.673  11.8980  0.00  0.00     0.000 OA
ATOM     51   O  IDS B   3     -26.401  52.986  11.4100  0.00  0.00     0.000 OA
ATOM     52   O  IDS B   3     -24.452  51.761  10.8880  0.00  0.00     0.000 OA
ATOM     53  @S  IDS B   3     -25.556  51.883  11.7480  0.00  0.00     0.000 S
ENDBRANCH 42 49
BRANCH 45 54
ATOM     54 @CA  IDS B   3     -21.339  51.645  16.3320  0.00  0.00     0.000 C
ATOM     55   O  IDS B   3     -21.049  52.032  17.4310  0.00  0.00     0.000 OA
ATOM     56   O  IDS B   3     -20.444  51.394  15.5950  0.00  0.00     0.000 OA
ENDBRANCH 45 54
BRANCH 41 57
ATOM     57  O4  SGN B   4     -24.569  49.345  15.2520  0.00  0.00     0.000 O
BRANCH 57 61
ATOM     58  C1  SGN B   4     -21.840  46.453  14.1610  0.00  0.00     0.000 C
ATOM     59  C2  SGN B   4     -23.049  46.591  13.2510  0.00  0.00     0.000 C
ATOM     60  C3  SGN B   4     -23.755  47.916  13.5260  0.00  0.00     0.000 C
ATOM     61  C4  SGN B   4     -24.130  48.045  15.0070  0.00  0.00     0.000 C
ATOM     62  C5  SGN B   4     -22.870  47.799  15.8320  0.00  0.00     0.000 C
ATOM     63  O5  SGN B   4     -22.276  46.557  15.5060  0.00  0.00     0.000 O
ATOM     64   O  SGN B   4     -24.939  47.969  12.7570  0.00  0.00     0.000 O
ATOM     66  HD  SGN B   4     -25.681  48.046  13.1970  0.00  0.00     0.000 HD
BRANCH 59 68
ATOM     66   N  SGN B   4     -23.184  45.376  12.4740  0.00  0.00     0.000 N
ATOM     68  HD  SGN B   4     -22.890  45.604  13.2560  0.00  0.00     0.000 HD
ATOM     68 @NS  SGN B   4     -22.161  45.081  11.2270  0.00  0.00     0.000 S
ATOM     69   O  SGN B   4     -21.897  46.322  10.5600  0.00  0.00     0.000 OA
ATOM     70   O  SGN B   4     -20.967  44.539  11.8100  0.00  0.00     0.000 OA
ATOM     71   O  SGN B   4     -22.866  44.148  10.4020  0.00  0.00     0.000 OA
ENDBRANCH 59 68
BRANCH 62 72
ATOM     72   C  SGN B   4     -23.139  47.775  17.3290  0.00  0.00     0.000 C
ATOM     73   O  SGN B   4     -22.259  46.825  17.8520  0.00  0.00     0.000 O
ATOM     74  @S  SGN B   4     -21.607  46.820  19.2450  0.00  0.00     0.000 S
ATOM     75   O  SGN B   4     -22.651  46.830  20.2020  0.00  0.00     0.000 OA
ATOM     76   O  SGN B   4     -20.854  45.602  19.2760  0.00  0.00     0.000 OA
ATOM     77   O  SGN B   4     -20.828  48.011  19.3140  0.00  0.00     0.000 OA
ENDBRANCH 62 72
BRANCH 58 78
ATOM     78  O4  IDS B   5     -20.871  47.428  13.8340  0.00  0.00     0.000 O
BRANCH 78 82
ATOM     79  C1  IDS B   5     -18.117  49.407  13.1300  0.00  0.00     0.000 C
ATOM     80  C2  IDS B   5     -18.632  48.469  12.0810  0.00  0.00     0.000 C
ATOM     81  C3  IDS B   5     -18.845  47.043  12.5810  0.00  0.00     0.000 C
ATOM     82  C4  IDS B   5     -19.532  46.992  13.9300  0.00  0.00     0.000 C
ATOM     83  C5  IDS B   5     -18.791  47.911  14.8480  0.00  0.00     0.000 C
ATOM     84  O5  IDS B   5     -18.837  49.229  14.3360  0.00  0.00     0.000 O
ATOM     85   O  IDS B   5     -17.579  46.445  12.7240  0.00  0.00     0.000 O
ATOM     87  HD  IDS B   5     -18.214  46.510  13.3090  0.00  0.00     0.000 HD
BRANCH 80 87
ATOM     87   O  IDS B   5     -19.853  48.930  11.6550  0.00  0.00     0.000 O
ATOM     88  @S  IDS B   5     -20.139  49.756  10.3990  0.00  0.00     0.000 S
ATOM     89   O  IDS B   5     -19.556  49.021   9.3350  0.00  0.00     0.000 OA
ATOM     90   O  IDS B   5     -21.554  49.861  10.3290  0.00  0.00     0.000 OA
ATOM     91   O  IDS B   5     -19.520  51.018  10.6090  0.00  0.00     0.000 OA
ENDBRANCH 80 87
BRANCH 83 92
ATOM     92 @CA  IDS B   5     -19.248  47.828  16.2990  0.00  0.00     0.000 C
ATOM     93   O  IDS B   5     -19.699  48.818  16.8800  0.00  0.00     0.000 OA
ATOM     94   O  IDS B   5     -19.170  46.763  16.9240  0.00  0.00     0.000 OA
ENDBRANCH 83 92
BRANCH 79 95
ATOM     95  O4  SGN B   6     -16.753  49.210  13.2990  0.00  0.00     0.000 O
BRANCH 95 99
ATOM     96  C1  SGN B   6     -13.713  51.109  15.3880  0.00  0.00     0.000 C
ATOM     97  C2  SGN B   6     -15.004  50.868  16.1610  0.00  0.00     0.000 C
ATOM     98  C3  SGN B   6     -15.731  49.725  15.4530  0.00  0.00     0.000 C
ATOM     99  C4  SGN B   6     -16.097  50.231  14.0280  0.00  0.00     0.000 C
ATOM    100  C5  SGN B   6     -14.755  50.574  13.3190  0.00  0.00     0.000 C
ATOM    101  O5  SGN B   6     -14.000  51.523  14.0660  0.00  0.00     0.000 O
BRANCH 97 104
ATOM    102   N  SGN B   6     -14.195  50.945  17.3820  0.00  0.00     0.000 N
ATOM    104  HD  SGN B   6     -14.626  50.582  18.0390  0.00  0.00     0.000 HD
ATOM    104 @NS  SGN B   6     -14.782  51.860  18.6350  0.00  0.00     0.000 S
ATOM    105   O  SGN B   6     -16.066  52.388  18.2300  0.00  0.00     0.000 OA
ATOM    106   O  SGN B   6     -14.888  50.982  19.7770  0.00  0.00     0.000 OA
ATOM    107   O  SGN B   6     -13.819  52.920  18.8410  0.00  0.00     0.000 OA
ENDBRANCH 97 104
BRANCH 100 108
ATOM    108   C  SGN B   6     -14.868  51.143  11.9100  0.00  0.00     0.000 C
ATOM    109   O  SGN B   6     -14.740  50.101  10.9750  0.00  0.00     0.000 O
ATOM    110  @S  SGN B   6     -14.791  50.257   9.4120  0.00  0.00     0.000 S
ATOM    111   O  SGN B   6     -14.061  51.464   9.1100  0.00  0.00     0.000 OA
ATOM    112   O  SGN B   6     -14.149  49.075   8.8590  0.00  0.00     0.000 OA
ATOM    113   O  SGN B   6     -16.193  50.353   9.0730  0.00  0.00     0.000 OA
ENDBRANCH 100 108
ENDBRANCH 95 99
ENDBRANCH 79 95
ENDBRANCH 78 82
ENDBRANCH 58 78
ENDBRANCH 57 61
ENDBRANCH 41 57
ENDBRANCH 40 44
ENDBRANCH 20 40
ENDBRANCH 19 23
ENDBRANCH 1 19
TORSDOF 22
ENDMDL
MODEL 37
REMARK VINA RESULT:      -0.8      4.056     11.555
ROOT
ATOM      1  C1  IDS B   1     -26.960  48.421  13.3310  0.00  0.00     0.000 C
ATOM      2  C2  IDS B   1     -27.387  49.371  12.2420  0.00  0.00     0.000 C
ATOM      3  C3  IDS B   1     -27.070  48.930  10.7930  0.00  0.00     0.000 C
ATOM      4  C4  IDS B   1     -27.015  47.368  10.6040  0.00  0.00     0.000 C
ATOM      5  C5  IDS B   1     -26.592  46.626  11.8950  0.00  0.00     0.000 C
ATOM      6  O5  IDS B   1     -27.331  47.102  12.9880  0.00  0.00     0.000 O
ATOM      7   O  IDS B   1     -25.833  49.534  10.4290  0.00  0.00     0.000 O
ATOM      9  HD  IDS B   1     -25.962  48.826   9.9470  0.00  0.00     0.000 HD
ATOM      9   O  IDS B   1     -28.309  46.932  10.2550  0.00  0.00     0.000 O
ATOM     11  HD  IDS B   1     -28.439  46.224   9.7730  0.00  0.00     0.000 HD
ENDROOT
BRANCH 2 11
ATOM     11   O  IDS B   1     -28.758  49.563  12.3030  0.00  0.00     0.000 O
ATOM     12  @S  IDS B   1     -29.572  50.365  11.2690  0.00  0.00     0.000 S
ATOM     13   O  IDS B   1     -28.612  51.305  10.7250  0.00  0.00     0.000 OA
ATOM     14   O  IDS B   1     -30.042  49.413  10.2790  0.00  0.00     0.000 OA
ATOM     15   O  IDS B   1     -30.652  50.985  12.0110  0.00  0.00     0.000 OA
ENDBRANCH 2 11
BRANCH 5 16
ATOM     16 @CA  IDS B   1     -26.654  45.102  11.8560  0.00  0.00     0.000 C
ATOM     17   O  IDS B   1     -27.379  44.466  12.6180  0.00  0.00     0.000 OA
ATOM     18   O  IDS B   1     -25.983  44.471  11.0430  0.00  0.00     0.000 OA
ENDBRANCH 5 16
BRANCH 1 19
ATOM     19  O4  SGN B   2     -25.559  48.528  13.4790  0.00  0.00     0.000 O
BRANCH 19 23
ATOM     20  C1  SGN B   2     -23.080  48.009  16.6950  0.00  0.00     0.000 C
ATOM     21  C2  SGN B   2     -23.541  46.789  15.9280  0.00  0.00     0.000 C
ATOM     22  C3  SGN B   2     -23.904  47.184  14.5420  0.00  0.00     0.000 C
ATOM     23  C4  SGN B   2     -25.072  48.128  14.7090  0.00  0.00     0.000 C
ATOM     24  C5  SGN B   2     -24.512  49.326  15.3930  0.00  0.00     0.000 C
ATOM     25  O5  SGN B   2     -24.114  48.982  16.6700  0.00  0.00     0.000 O
ATOM     26   O  SGN B   2     -24.287  46.062  13.8280  0.00  0.00     0.000 O
ATOM     28  HD  SGN B   2     -24.704  45.431  13.4050  0.00  0.00     0.000 HD
BRANCH 21 30
ATOM     28   N  SGN B   2     -22.321  46.165  16.3500  0.00  0.00     0.000 N
ATOM     30  HD  SGN B   2     -22.191  45.654  15.6630  0.00  0.00     0.000 HD
ATOM     30 @NS  SGN B   2     -22.454  44.847  17.2910  0.00  0.00     0.000 S
ATOM     31   O  SGN B   2     -23.826  44.476  17.3860  0.00  0.00     0.000 OA
ATOM     32   O  SGN B   2     -21.704  43.875  16.6070  0.00  0.00     0.000 OA
ATOM     33   O  SGN B   2     -21.935  45.209  18.5550  0.00  0.00     0.000 OA
ENDBRANCH 21 30
BRANCH 24 34
ATOM     34   C  SGN B   2     -25.443  50.474  15.5300  0.00  0.00     0.000 C
ATOM     35   O  SGN B   2     -25.053  51.439  14.6180  0.00  0.00     0.000 O
ATOM     36  @S  SGN B   2     -25.882  52.678  14.2990  0.00  0.00     0.000 S
ATOM     37   O  SGN B   2     -25.394  53.681  15.2250  0.00  0.00     0.000 OA
ATOM     38   O  SGN B   2     -25.631  52.999  12.9130  0.00  0.00     0.000 OA
ATOM     39   O  SGN B   2     -27.264  52.283  14.5320  0.00  0.00     0.000 OA
ENDBRANCH 24 34
BRANCH 20 40
ATOM     40  O4  IDS B   3     -21.899  48.511  16.1480  0.00  0.00     0.000 O
BRANCH 40 44
ATOM     41  C1  IDS B   3     -18.691  49.858  15.7040  0.00  0.00     0.000 C
ATOM     42  C2  IDS B   3     -18.868  48.423  16.1970  0.00  0.00     0.000 C
ATOM     43  C3  IDS B   3     -19.895  48.230  17.3300  0.00  0.00     0.000 C
ATOM     44  C4  IDS B   3     -21.108  49.113  17.1190  0.00  0.00     0.000 C
ATOM     45  C5  IDS B   3     -20.720  50.532  16.6760  0.00  0.00     0.000 C
ATOM     46  O5  IDS B   3     -19.953  50.484  15.5290  0.00  0.00     0.000 O
ATOM     47   O  IDS B   3     -19.302  48.579  18.5630  0.00  0.00     0.000 O
ATOM     49  HD  IDS B   3     -19.857  48.169  18.0410  0.00  0.00     0.000 HD
BRANCH 42 49
ATOM     49   O  IDS B   3     -19.287  47.632  15.1220  0.00  0.00     0.000 O
ATOM     50   O  IDS B   3     -17.055  47.165  14.5310  0.00  0.00     0.000 OA
ATOM     51   O  IDS B   3     -18.674  45.447  14.3630  0.00  0.00     0.000 OA
ATOM     52   O  IDS B   3     -18.743  47.295  12.8970  0.00  0.00     0.000 OA
ATOM     53  @S  IDS B   3     -18.386  46.834  14.1750  0.00  0.00     0.000 S
ENDBRANCH 42 49
BRANCH 45 54
ATOM     54 @CA  IDS B   3     -21.887  51.496  16.4750  0.00  0.00     0.000 C
ATOM     55   O  IDS B   3     -22.655  51.750  17.3630  0.00  0.00     0.000 OA
ATOM     56   O  IDS B   3     -22.060  52.046  15.4380  0.00  0.00     0.000 OA
ENDBRANCH 45 54
BRANCH 41 57
ATOM     57  O4  SGN B   4     -17.888  50.560  16.5940  0.00  0.00     0.000 O
BRANCH 57 61
ATOM     58  C1  SGN B   4     -17.061  53.682  14.0320  0.00  0.00     0.000 C
ATOM     59  C2  SGN B   4     -16.218  52.433  13.8380  0.00  0.00     0.000 C
ATOM     60  C3  SGN B   4     -16.869  51.254  14.5540  0.00  0.00     0.000 C
ATOM     61  C4  SGN B   4     -17.102  51.567  16.0360  0.00  0.00     0.000 C
ATOM     62  C5  SGN B   4     -17.874  52.881  16.1210  0.00  0.00     0.000 C
ATOM     63  O5  SGN B   4     -17.206  53.916  15.4230  0.00  0.00     0.000 O
ATOM     64   O  SGN B   4     -16.010  50.135  14.4610  0.00  0.00     0.000 O
ATOM     66  HD  SGN B   4     -15.730  49.802  15.2100  0.00  0.00     0.000 HD
BRANCH 59 68
ATOM     66   N  SGN B   4     -15.012  52.692  13.0790  0.00  0.00     0.000 N
ATOM     68  HD  SGN B   4     -15.486  53.096  13.6800  0.00  0.00     0.000 HD
ATOM     68 @NS  SGN B   4     -15.111  53.099  11.4930  0.00  0.00     0.000 S
ATOM     69   O  SGN B   4     -16.171  52.338  10.8990  0.00  0.00     0.000 OA
ATOM     70   O  SGN B   4     -15.395  54.504  11.4590  0.00  0.00     0.000 OA
ATOM     71   O  SGN B   4     -13.825  52.765  10.9600  0.00  0.00     0.000 OA
ENDBRANCH 59 68
BRANCH 62 72
ATOM     72   C  SGN B   4     -18.058  53.368  17.5500  0.00  0.00     0.000 C
ATOM     73   O  SGN B   4     -18.335  54.733  17.4480  0.00  0.00     0.000 O
ATOM     74  @S  SGN B   4     -19.214  55.582  18.3830  0.00  0.00     0.000 S
ATOM     75   O  SGN B   4     -18.672  55.476  19.6860  0.00  0.00     0.000 OA
ATOM     76   O  SGN B   4     -19.106  56.909  17.8560  0.00  0.00     0.000 OA
ATOM     77   O  SGN B   4     -20.517  55.011  18.3140  0.00  0.00     0.000 OA
ENDBRANCH 62 72
BRANCH 58 78
ATOM     78  O4  IDS B   5     -18.307  53.536  13.3800  0.00  0.00     0.000 O
BRANCH 78 82
ATOM     79  C1  IDS B   5     -21.281  53.712  11.6130  0.00  0.00     0.000 C
ATOM     80  C2  IDS B   5     -20.028  53.303  10.9000  0.00  0.00     0.000 C
ATOM     81  C3  IDS B   5     -18.849  54.243  11.1370  0.00  0.00     0.000 C
ATOM     82  C4  IDS B   5     -18.700  54.638  12.5920  0.00  0.00     0.000 C
ATOM     83  C5  IDS B   5     -20.034  55.118  13.0670  0.00  0.00     0.000 C
ATOM     84  O5  IDS B   5     -20.982  54.073  12.9490  0.00  0.00     0.000 O
ATOM     85   O  IDS B   5     -19.080  55.417  10.3970  0.00  0.00     0.000 O
ATOM     87  HD  IDS B   5     -18.903  55.338  11.2410  0.00  0.00     0.000 HD
BRANCH 80 87
ATOM     87   O  IDS B   5     -19.653  52.066  11.3640  0.00  0.00     0.000 O
ATOM     88  @S  IDS B   5     -19.641  50.753  10.5780  0.00  0.00     0.000 S
ATOM     89   O  IDS B   5     -18.881  51.028   9.4120  0.00  0.00     0.000 OA
ATOM     90   O  IDS B   5     -19.049  49.798  11.4480  0.00  0.00     0.000 OA
ATOM     91   O  IDS B   5     -21.001  50.449  10.2990  0.00  0.00     0.000 OA
ENDBRANCH 80 87
BRANCH 83 92
ATOM     92 @CA  IDS B   5     -20.005  55.729  14.4630  0.00  0.00     0.000 C
ATOM     93   O  IDS B   5     -19.241  56.659  14.7330  0.00  0.00     0.000 OA
ATOM     94   O  IDS B   5     -20.747  55.299  15.3540  0.00  0.00     0.000 OA
ENDBRANCH 83 92
BRANCH 79 95
ATOM     95  O4  SGN B   6     -21.897  54.742  10.9150  0.00  0.00     0.000 O
BRANCH 95 99
ATOM     96  C1  SGN B   6     -25.309  57.039  11.4520  0.00  0.00     0.000 C
ATOM     97  C2  SGN B   6     -24.487  56.764  12.7050  0.00  0.00     0.000 C
ATOM     98  C3  SGN B   6     -23.073  56.423  12.2340  0.00  0.00     0.000 C
ATOM     99  C4  SGN B   6     -23.172  55.107  11.4110  0.00  0.00     0.000 C
ATOM    100  C5  SGN B   6     -24.113  55.404  10.2080  0.00  0.00     0.000 C
ATOM    101  O5  SGN B   6     -25.383  55.879  10.6460  0.00  0.00     0.000 O
BRANCH 97 104
ATOM    102   N  SGN B   6     -24.588  57.943  13.5700  0.00  0.00     0.000 N
ATOM    104  HD  SGN B   6     -24.330  57.740  14.3710  0.00  0.00     0.000 HD
ATOM    104 @NS  SGN B   6     -25.665  57.881  14.8310  0.00  0.00     0.000 S
ATOM    105   O  SGN B   6     -26.282  56.573  14.8170  0.00  0.00     0.000 OA
ATOM    106   O  SGN B   6     -24.905  58.113  16.0380  0.00  0.00     0.000 OA
ATOM    107   O  SGN B   6     -26.635  58.923  14.5810  0.00  0.00     0.000 OA
ENDBRANCH 97 104
BRANCH 100 108
ATOM    108   C  SGN B   6     -24.402  54.233   9.2770  0.00  0.00     0.000 C
ATOM    109   O  SGN B   6     -25.749  54.275   8.8780  0.00  0.00     0.000 O
ATOM    110  @S  SGN B   6     -26.458  53.247   7.9240  0.00  0.00     0.000 S
ATOM    111   O  SGN B   6     -25.955  51.947   8.2980  0.00  0.00     0.000 OA
ATOM    112   O  SGN B   6     -27.886  53.374   8.1700  0.00  0.00     0.000 OA
ATOM    113   O  SGN B   6     -26.076  53.629   6.5830  0.00  0.00     0.000 OA
ENDBRANCH 100 108
ENDBRANCH 95 99
ENDBRANCH 79 95
ENDBRANCH 78 82
ENDBRANCH 58 78
ENDBRANCH 57 61
ENDBRANCH 41 57
ENDBRANCH 40 44
ENDBRANCH 20 40
ENDBRANCH 19 23
ENDBRANCH 1 19
TORSDOF 22
ENDMDL
MODEL 38
REMARK VINA RESULT:      -0.8      5.123     14.520
ROOT
ATOM      1  C1  IDS B   1     -21.012  46.811  17.2570  0.00  0.00     0.000 C
ATOM      2  C2  IDS B   1     -20.454  46.273  18.5480  0.00  0.00     0.000 C
ATOM      3  C3  IDS B   1     -21.486  45.954  19.6560  0.00  0.00     0.000 C
ATOM      4  C4  IDS B   1     -22.909  45.568  19.1020  0.00  0.00     0.000 C
ATOM      5  C5  IDS B   1     -23.214  46.220  17.7320  0.00  0.00     0.000 C
ATOM      6  O5  IDS B   1     -22.130  46.041  16.8610  0.00  0.00     0.000 O
ATOM      7   O  IDS B   1     -21.561  47.095  20.5050  0.00  0.00     0.000 O
ATOM      9  HD  IDS B   1     -22.297  46.643  20.5630  0.00  0.00     0.000 HD
ATOM      9   O  IDS B   1     -22.937  44.168  18.9330  0.00  0.00     0.000 O
ATOM     11  HD  IDS B   1     -23.674  43.716  18.9920  0.00  0.00     0.000 HD
ENDROOT
BRANCH 2 11
ATOM     11   O  IDS B   1     -19.765  45.095  18.3040  0.00  0.00     0.000 O
ATOM     12  @S  IDS B   1     -18.403  44.736  18.9280  0.00  0.00     0.000 S
ATOM     13   O  IDS B   1     -17.799  46.023  19.2060  0.00  0.00     0.000 OA
ATOM     14   O  IDS B   1     -18.685  43.980  20.1350  0.00  0.00     0.000 OA
ATOM     15   O  IDS B   1     -17.702  43.956  17.9270  0.00  0.00     0.000 OA
ENDBRANCH 2 11
BRANCH 5 16
ATOM     16 @CA  IDS B   1     -24.505  45.788  17.0430  0.00  0.00     0.000 C
ATOM     17   O  IDS B   1     -25.306  46.609  16.6030  0.00  0.00     0.000 OA
ATOM     18   O  IDS B   1     -24.766  44.596  16.9010  0.00  0.00     0.000 OA
ENDBRANCH 5 16
BRANCH 1 19
ATOM     19  O4  SGN B   2     -21.378  48.159  17.4670  0.00  0.00     0.000 O
BRANCH 19 23
ATOM     20  C1  SGN B   2     -22.174  51.087  14.7190  0.00  0.00     0.000 C
ATOM     21  C2  SGN B   2     -23.332  50.437  15.4450  0.00  0.00     0.000 C
ATOM     22  C3  SGN B   2     -22.855  49.880  16.7370  0.00  0.00     0.000 C
ATOM     23  C4  SGN B   2     -21.859  48.812  16.3480  0.00  0.00     0.000 C
ATOM     24  C5  SGN B   2     -20.724  49.545  15.7210  0.00  0.00     0.000 C
ATOM     25  O5  SGN B   2     -21.148  50.121  14.5390  0.00  0.00     0.000 O
ATOM     26   O  SGN B   2     -23.921  49.322  17.4210  0.00  0.00     0.000 O
ATOM     28  HD  SGN B   2     -24.509  48.806  17.7930  0.00  0.00     0.000 HD
BRANCH 21 30
ATOM     28   N  SGN B   2     -23.782  51.414  14.4970  0.00  0.00     0.000 N
ATOM     30  HD  SGN B   2     -23.749  52.114  15.0060  0.00  0.00     0.000 HD
ATOM     30 @NS  SGN B   2     -25.388  51.611  14.3490  0.00  0.00     0.000 S
ATOM     31   O  SGN B   2     -26.049  50.839  15.3470  0.00  0.00     0.000 OA
ATOM     32   O  SGN B   2     -25.573  52.988  14.5560  0.00  0.00     0.000 OA
ATOM     33   O  SGN B   2     -25.724  51.161  13.0510  0.00  0.00     0.000 OA
ENDBRANCH 21 30
BRANCH 24 34
ATOM     34   C  SGN B   2     -19.537  48.717  15.3930  0.00  0.00     0.000 C
ATOM     35   O  SGN B   2     -18.439  49.558  15.3560  0.00  0.00     0.000 O
ATOM     36  @S  SGN B   2     -17.002  49.060  15.2630  0.00  0.00     0.000 S
ATOM     37   O  SGN B   2     -16.730  49.018  13.8400  0.00  0.00     0.000 OA
ATOM     38   O  SGN B   2     -16.185  50.012  15.9800  0.00  0.00     0.000 OA
ATOM     39   O  SGN B   2     -17.009  47.751  15.9000  0.00  0.00     0.000 OA
ENDBRANCH 24 34
BRANCH 20 40
ATOM     40  O4  IDS B   3     -21.710  52.192  15.4310  0.00  0.00     0.000 O
BRANCH 40 44
ATOM     41  C1  IDS B   3     -20.524  55.428  14.7770  0.00  0.00     0.000 C
ATOM     42  C2  IDS B   3     -21.037  54.546  13.6410  0.00  0.00     0.000 C
ATOM     43  C3  IDS B   3     -20.511  53.097  13.6320  0.00  0.00     0.000 C
ATOM     44  C4  IDS B   3     -20.424  52.543  15.0400  0.00  0.00     0.000 C
ATOM     45  C5  IDS B   3     -19.833  53.563  16.0270  0.00  0.00     0.000 C
ATOM     46  O5  IDS B   3     -20.573  54.729  16.0120  0.00  0.00     0.000 O
ATOM     47   O  IDS B   3     -19.218  53.072  13.0660  0.00  0.00     0.000 O
ATOM     49  HD  IDS B   3     -19.991  52.750  13.2870  0.00  0.00     0.000 HD
BRANCH 42 49
ATOM     49   O  IDS B   3     -22.432  54.477  13.7260  0.00  0.00     0.000 O
ATOM     50   O  IDS B   3     -22.645  56.632  12.8000  0.00  0.00     0.000 OA
ATOM     51   O  IDS B   3     -24.191  54.952  12.1740  0.00  0.00     0.000 OA
ATOM     52   O  IDS B   3     -24.202  55.825  14.3670  0.00  0.00     0.000 OA
ATOM     53  @S  IDS B   3     -23.426  55.532  13.2330  0.00  0.00     0.000 S
ENDBRANCH 42 49
BRANCH 45 54
ATOM     54 @CA  IDS B   3     -19.680  53.069  17.4630  0.00  0.00     0.000 C
ATOM     55   O  IDS B   3     -20.147  53.673  18.3910  0.00  0.00     0.000 OA
ATOM     56   O  IDS B   3     -19.112  52.058  17.7110  0.00  0.00     0.000 OA
ENDBRANCH 45 54
BRANCH 41 57
ATOM     57  O4  SGN B   4     -19.238  55.864  14.4840  0.00  0.00     0.000 O
BRANCH 57 61
ATOM     58  C1  SGN B   4     -16.973  59.302  14.6860  0.00  0.00     0.000 C
ATOM     59  C2  SGN B   4     -17.805  58.991  15.9180  0.00  0.00     0.000 C
ATOM     60  C3  SGN B   4     -18.269  57.539  15.8760  0.00  0.00     0.000 C
ATOM     61  C4  SGN B   4     -19.027  57.239  14.5780  0.00  0.00     0.000 C
ATOM     62  C5  SGN B   4     -18.144  57.670  13.4100  0.00  0.00     0.000 C
ATOM     63  O5  SGN B   4     -17.752  59.024  13.5350  0.00  0.00     0.000 O
ATOM     64   O  SGN B   4     -19.137  57.306  16.9670  0.00  0.00     0.000 O
ATOM     66  HD  SGN B   4     -19.942  57.055  16.7710  0.00  0.00     0.000 HD
BRANCH 59 68
ATOM     66   N  SGN B   4     -17.993  60.078  16.8580  0.00  0.00     0.000 N
ATOM     68  HD  SGN B   4     -18.031  59.962  16.0000  0.00  0.00     0.000 HD
ATOM     68 @NS  SGN B   4     -16.695  60.780  17.5720  0.00  0.00     0.000 S
ATOM     69   O  SGN B   4     -15.730  59.759  17.8560  0.00  0.00     0.000 OA
ATOM     70   O  SGN B   4     -16.185  61.730  16.6260  0.00  0.00     0.000 OA
ATOM     71   O  SGN B   4     -17.225  61.385  18.7560  0.00  0.00     0.000 OA
ENDBRANCH 59 68
BRANCH 62 72
ATOM     72   C  SGN B   4     -18.840  57.539  12.0630  0.00  0.00     0.000 C
ATOM     73   O  SGN B   4     -18.345  56.361  11.4990  0.00  0.00     0.000 O
ATOM     74  @S  SGN B   4     -19.080  55.395  10.5540  0.00  0.00     0.000 S
ATOM     75   O  SGN B   4     -19.476  56.138   9.4150  0.00  0.00     0.000 OA
ATOM     76   O  SGN B   4     -18.101  54.399  10.2390  0.00  0.00     0.000 OA
ATOM     77   O  SGN B   4     -20.208  54.922  11.2830  0.00  0.00     0.000 OA
ENDBRANCH 62 72
BRANCH 58 78
ATOM     78  O4  IDS B   5     -15.769  58.562  14.7100  0.00  0.00     0.000 O
BRANCH 78 82
ATOM     79  C1  IDS B   5     -12.604  57.177  14.4680  0.00  0.00     0.000 C
ATOM     80  C2  IDS B   5     -12.926  58.069  15.6280  0.00  0.00     0.000 C
ATOM     81  C3  IDS B   5     -13.564  59.396  15.2270  0.00  0.00     0.000 C
ATOM     82  C4  IDS B   5     -14.646  59.232  14.1790  0.00  0.00     0.000 C
ATOM     83  C5  IDS B   5     -14.077  58.409  13.0680  0.00  0.00     0.000 C
ATOM     84  O5  IDS B   5     -13.695  57.140  13.5660  0.00  0.00     0.000 O
ATOM     85   O  IDS B   5     -12.556  60.208  14.6750  0.00  0.00     0.000 O
ATOM     87  HD  IDS B   5     -13.320  59.988  14.3310  0.00  0.00     0.000 HD
BRANCH 80 87
ATOM     87   O  IDS B   5     -13.829  57.418  16.4320  0.00  0.00     0.000 O
ATOM     88  @S  IDS B   5     -13.531  56.297  17.4320  0.00  0.00     0.000 S
ATOM     89   O  IDS B   5     -12.499  56.807  18.2600  0.00  0.00     0.000 OA
ATOM     90   O  IDS B   5     -14.758  56.059  18.1080  0.00  0.00     0.000 OA
ATOM     91   O  IDS B   5     -13.123  55.178  16.6570  0.00  0.00     0.000 OA
ENDBRANCH 80 87
BRANCH 83 92
ATOM     92 @CA  IDS B   5     -14.985  58.312  11.8480  0.00  0.00     0.000 C
ATOM     93   O  IDS B   5     -15.350  57.216  11.4140  0.00  0.00     0.000 OA
ATOM     94   O  IDS B   5     -15.370  59.333  11.2670  0.00  0.00     0.000 OA
ENDBRANCH 83 92
BRANCH 79 95
ATOM     95  O4  SGN B   6     -11.434  57.613  13.8590  0.00  0.00     0.000 O
BRANCH 95 99
ATOM     96  C1  SGN B   6      -9.046  56.354  10.7090  0.00  0.00     0.000 C
ATOM     97  C2  SGN B   6     -10.499  56.659  10.3630  0.00  0.00     0.000 C
ATOM     98  C3  SGN B   6     -11.020  57.594  11.4550  0.00  0.00     0.000 C
ATOM     99  C4  SGN B   6     -10.988  56.797  12.7910  0.00  0.00     0.000 C
ATOM    100  C5  SGN B   6      -9.503  56.408  13.0410  0.00  0.00     0.000 C
ATOM    101  O5  SGN B   6      -8.967  55.672  11.9450  0.00  0.00     0.000 O
BRANCH 97 104
ATOM    102   N  SGN B   6     -11.090  55.763   9.3650  0.00  0.00     0.000 N
ATOM    104  HD  SGN B   6     -10.465  55.426   8.8700  0.00  0.00     0.000 HD
ATOM    104 @NS  SGN B   6     -10.938  56.185   7.7680  0.00  0.00     0.000 S
ATOM    105   O  SGN B   6     -10.172  57.411   7.7090  0.00  0.00     0.000 OA
ATOM    106   O  SGN B   6     -10.264  55.089   7.1100  0.00  0.00     0.000 OA
ATOM    107   O  SGN B   6     -12.283  56.381   7.2760  0.00  0.00     0.000 OA
ENDBRANCH 97 104
BRANCH 100 108
ATOM    108   C  SGN B   6      -9.230  55.569  14.2840  0.00  0.00     0.000 C
ATOM    109   O  SGN B   6     -10.072  54.442  14.2800  0.00  0.00     0.000 O
ATOM    110  @S  SGN B   6     -10.116  53.324  15.3840  0.00  0.00     0.000 S
ATOM    111   O  SGN B   6      -9.991  54.009  16.6480  0.00  0.00     0.000 OA
ATOM    112   O  SGN B   6     -11.403  52.661  15.2450  0.00  0.00     0.000 OA
ATOM    113   O  SGN B   6      -8.995  52.455  15.1050  0.00  0.00     0.000 OA
ENDBRANCH 100 108
ENDBRANCH 95 99
ENDBRANCH 79 95
ENDBRANCH 78 82
ENDBRANCH 58 78
ENDBRANCH 57 61
ENDBRANCH 41 57
ENDBRANCH 40 44
ENDBRANCH 20 40
ENDBRANCH 19 23
ENDBRANCH 1 19
TORSDOF 22
ENDMDL
MODEL 39
REMARK VINA RESULT:      -0.7      4.072     11.021
ROOT
ATOM      1  C1  IDS B   1     -24.711  53.940  10.7660  0.00  0.00     0.000 C
ATOM      2  C2  IDS B   1     -25.942  53.799  11.6220  0.00  0.00     0.000 C
ATOM      3  C3  IDS B   1     -26.643  55.118  12.0290  0.00  0.00     0.000 C
ATOM      4  C4  IDS B   1     -26.438  56.288  10.9960  0.00  0.00     0.000 C
ATOM      5  C5  IDS B   1     -25.109  56.166  10.2110  0.00  0.00     0.000 C
ATOM      6  O5  IDS B   1     -24.956  54.861   9.7230  0.00  0.00     0.000 O
ATOM      7   O  IDS B   1     -26.149  55.479  13.3150  0.00  0.00     0.000 O
ATOM      9  HD  IDS B   1     -26.438  56.186  12.9070  0.00  0.00     0.000 HD
ATOM      9   O  IDS B   1     -27.497  56.231  10.0670  0.00  0.00     0.000 O
ATOM     11  HD  IDS B   1     -27.787  56.938   9.6590  0.00  0.00     0.000 HD
ENDROOT
BRANCH 2 11
ATOM     11   O  IDS B   1     -26.891  53.042  10.9530  0.00  0.00     0.000 O
ATOM     12  @S  IDS B   1     -28.368  52.924  11.3750  0.00  0.00     0.000 S
ATOM     13   O  IDS B   1     -28.342  53.172  12.8030  0.00  0.00     0.000 OA
ATOM     14   O  IDS B   1     -29.093  53.949  10.6450  0.00  0.00     0.000 OA
ATOM     15   O  IDS B   1     -28.776  51.581  11.0150  0.00  0.00     0.000 OA
ENDBRANCH 2 11
BRANCH 5 16
ATOM     16 @CA  IDS B   1     -24.889  57.168   9.0820  0.00  0.00     0.000 C
ATOM     17   O  IDS B   1     -23.970  57.983   9.1130  0.00  0.00     0.000 OA
ATOM     18   O  IDS B   1     -25.628  57.172   8.1000  0.00  0.00     0.000 OA
ENDBRANCH 5 16
BRANCH 1 19
ATOM     19  O4  SGN B   2     -23.654  54.384  11.5910  0.00  0.00     0.000 O
BRANCH 19 23
ATOM     20  C1  SGN B   2     -19.755  55.066  10.5490  0.00  0.00     0.000 C
ATOM     21  C2  SGN B   2     -20.634  56.249  10.8870  0.00  0.00     0.000 C
ATOM     22  C3  SGN B   2     -21.747  55.803  11.7640  0.00  0.00     0.000 C
ATOM     23  C4  SGN B   2     -22.537  54.834  10.9140  0.00  0.00     0.000 C
ATOM     24  C5  SGN B   2     -21.630  53.672  10.7010  0.00  0.00     0.000 C
ATOM     25  O5  SGN B   2     -20.552  54.066   9.9310  0.00  0.00     0.000 O
ATOM     26   O  SGN B   2     -22.529  56.892  12.1090  0.00  0.00     0.000 O
ATOM     28  HD  SGN B   2     -23.141  57.498  12.1960  0.00  0.00     0.000 HD
BRANCH 21 30
ATOM     28   N  SGN B   2     -19.495  56.980  11.3630  0.00  0.00     0.000 N
ATOM     30  HD  SGN B   2     -19.903  57.515  11.9100  0.00  0.00     0.000 HD
ATOM     30 @NS  SGN B   2     -19.020  58.260  10.4820  0.00  0.00     0.000 S
ATOM     31   O  SGN B   2     -19.970  58.493   9.4460  0.00  0.00     0.000 OA
ATOM     32   O  SGN B   2     -19.002  59.313  11.4110  0.00  0.00     0.000 OA
ATOM     33   O  SGN B   2     -17.755  57.924   9.9480  0.00  0.00     0.000 OA
ENDBRANCH 21 30
BRANCH 24 34
ATOM     34   C  SGN B   2     -22.241  52.505  10.0170  0.00  0.00     0.000 C
ATOM     35   O  SGN B   2     -22.479  51.537  10.9760  0.00  0.00     0.000 O
ATOM     36  @S  SGN B   2     -23.292  50.275  10.7120  0.00  0.00     0.000 S
ATOM     37   O  SGN B   2     -22.307  49.297  10.2970  0.00  0.00     0.000 OA
ATOM     38   O  SGN B   2     -23.953  49.940  11.9530  0.00  0.00     0.000 OA
ATOM     39   O  SGN B   2     -24.237  50.641   9.6670  0.00  0.00     0.000 OA
ENDBRANCH 24 34
BRANCH 20 40
ATOM     40  O4  IDS B   3     -19.129  54.578  11.6960  0.00  0.00     0.000 O
BRANCH 40 44
ATOM     41  C1  IDS B   3     -16.925  53.005  13.9260  0.00  0.00     0.000 C
ATOM     42  C2  IDS B   3     -16.876  54.519  13.7240  0.00  0.00     0.000 C
ATOM     43  C3  IDS B   3     -16.893  54.997  12.2600  0.00  0.00     0.000 C
ATOM     44  C4  IDS B   3     -17.835  54.152  11.4250  0.00  0.00     0.000 C
ATOM     45  C5  IDS B   3     -17.697  52.654  11.7350  0.00  0.00     0.000 C
ATOM     46  O5  IDS B   3     -17.906  52.421  13.0810  0.00  0.00     0.000 O
ATOM     47   O  IDS B   3     -15.595  54.883  11.7150  0.00  0.00     0.000 O
ATOM     49  HD  IDS B   3     -16.397  55.203  11.7890  0.00  0.00     0.000 HD
BRANCH 42 49
ATOM     49   O  IDS B   3     -17.986  55.088  14.3570  0.00  0.00     0.000 O
ATOM     50   O  IDS B   3     -16.762  57.035  14.8640  0.00  0.00     0.000 OA
ATOM     51   O  IDS B   3     -19.028  57.237  14.2110  0.00  0.00     0.000 OA
ATOM     52   O  IDS B   3     -18.469  56.268  16.2890  0.00  0.00     0.000 OA
ATOM     53  @S  IDS B   3     -18.066  56.492  14.9620  0.00  0.00     0.000 S
ENDBRANCH 42 49
BRANCH 45 54
ATOM     54 @CA  IDS B   3     -18.589  51.730  10.9100  0.00  0.00     0.000 C
ATOM     55   O  IDS B   3     -19.399  51.008  11.4260  0.00  0.00     0.000 OA
ATOM     56   O  IDS B   3     -18.529  51.711   9.7250  0.00  0.00     0.000 OA
ENDBRANCH 45 54
BRANCH 41 57
ATOM     57  O4  SGN B   4     -15.665  52.464  13.7010  0.00  0.00     0.000 O
BRANCH 57 61
ATOM     58  C1  SGN B   4     -16.488  49.070  15.8920  0.00  0.00     0.000 C
ATOM     59  C2  SGN B   4     -15.814  50.197  16.6560  0.00  0.00     0.000 C
ATOM     60  C3  SGN B   4     -15.923  51.497  15.8640  0.00  0.00     0.000 C
ATOM     61  C4  SGN B   4     -15.349  51.333  14.4520  0.00  0.00     0.000 C
ATOM     62  C5  SGN B   4     -16.024  50.125  13.8100  0.00  0.00     0.000 C
ATOM     63  O5  SGN B   4     -15.883  48.969  14.6140  0.00  0.00     0.000 O
ATOM     64   O  SGN B   4     -15.189  52.501  16.5340  0.00  0.00     0.000 O
ATOM     66  HD  SGN B   4     -14.537  52.861  16.0920  0.00  0.00     0.000 HD
BRANCH 59 68
ATOM     66   N  SGN B   4     -15.214  49.638  17.8500  0.00  0.00     0.000 N
ATOM     68  HD  SGN B   4     -15.399  49.375  17.0460  0.00  0.00     0.000 HD
ATOM     68 @NS  SGN B   4     -16.157  49.223  19.1260  0.00  0.00     0.000 S
ATOM     69   O  SGN B   4     -17.201  50.197  19.2490  0.00  0.00     0.000 OA
ATOM     70   O  SGN B   4     -16.688  47.925  18.8240  0.00  0.00     0.000 OA
ATOM     71   O  SGN B   4     -15.263  49.226  20.2440  0.00  0.00     0.000 OA
ENDBRANCH 59 68
BRANCH 62 72
ATOM     72   C  SGN B   4     -15.446  49.781  12.4450  0.00  0.00     0.000 C
ATOM     73   O  SGN B   4     -15.799  48.449  12.2140  0.00  0.00     0.000 O
ATOM     74  @S  SGN B   4     -16.089  47.779  10.8600  0.00  0.00     0.000 S
ATOM     75   O  SGN B   4     -14.933  47.934  10.0560  0.00  0.00     0.000 OA
ATOM     76   O  SGN B   4     -16.339  46.409  11.1920  0.00  0.00     0.000 OA
ATOM     77   O  SGN B   4     -17.201  48.479  10.3110  0.00  0.00     0.000 OA
ENDBRANCH 62 72
BRANCH 58 78
ATOM     78  O4  IDS B   5     -17.880  49.301  15.8110  0.00  0.00     0.000 O
BRANCH 78 82
ATOM     79  C1  IDS B   5     -21.340  49.276  15.6580  0.00  0.00     0.000 C
ATOM     80  C2  IDS B   5     -20.666  49.649  16.9430  0.00  0.00     0.000 C
ATOM     81  C3  IDS B   5     -19.592  48.659  17.3860  0.00  0.00     0.000 C
ATOM     82  C4  IDS B   5     -18.688  48.230  16.2490  0.00  0.00     0.000 C
ATOM     83  C5  IDS B   5     -19.563  47.794  15.1170  0.00  0.00     0.000 C
ATOM     84  O5  IDS B   5     -20.374  48.876  14.7020  0.00  0.00     0.000 O
ATOM     85   O  IDS B   5     -20.241  47.510  17.8720  0.00  0.00     0.000 O
ATOM     87  HD  IDS B   5     -19.628  47.565  17.2630  0.00  0.00     0.000 HD
BRANCH 80 87
ATOM     87   O  IDS B   5     -20.046  50.861  16.7670  0.00  0.00     0.000 O
ATOM     88  @S  IDS B   5     -20.717  52.208  16.4870  0.00  0.00     0.000 S
ATOM     89   O  IDS B   5     -21.682  52.358  17.5150  0.00  0.00     0.000 OA
ATOM     90   O  IDS B   5     -19.670  53.167  16.5240  0.00  0.00     0.000 OA
ATOM     91   O  IDS B   5     -21.294  52.097  15.1930  0.00  0.00     0.000 OA
ENDBRANCH 80 87
BRANCH 83 92
ATOM     92 @CA  IDS B   5     -18.801  47.155  13.9630  0.00  0.00     0.000 C
ATOM     93   O  IDS B   5     -19.054  47.453  12.7930  0.00  0.00     0.000 OA
ATOM     94   O  IDS B   5     -17.915  46.319  14.1790  0.00  0.00     0.000 OA
ENDBRANCH 83 92
BRANCH 79 95
ATOM     95  O4  SGN B   6     -22.282  48.284  15.8990  0.00  0.00     0.000 O
BRANCH 95 99
ATOM     96  C1  SGN B   6     -26.157  47.552  14.6120  0.00  0.00     0.000 C
ATOM     97  C2  SGN B   6     -25.046  47.064  13.6900  0.00  0.00     0.000 C
ATOM     98  C3  SGN B   6     -23.793  46.920  14.5560  0.00  0.00     0.000 C
ATOM     99  C4  SGN B   6     -23.424  48.343  15.0630  0.00  0.00     0.000 C
ATOM    100  C5  SGN B   6     -24.635  48.845  15.9010  0.00  0.00     0.000 C
ATOM    101  O5  SGN B   6     -25.838  48.825  15.1390  0.00  0.00     0.000 O
BRANCH 97 104
ATOM    102   N  SGN B   6     -25.480  47.253  12.3030  0.00  0.00     0.000 N
ATOM    104  HD  SGN B   6     -26.335  47.126  12.2450  0.00  0.00     0.000 HD
ATOM    104 @NS  SGN B   6     -26.102  45.937  11.5070  0.00  0.00     0.000 S
ATOM    105   O  SGN B   6     -26.110  44.826  12.4340  0.00  0.00     0.000 OA
ATOM    106   O  SGN B   6     -27.433  46.300  11.0780  0.00  0.00     0.000 OA
ATOM    107   O  SGN B   6     -25.213  45.686  10.3940  0.00  0.00     0.000 OA
ENDBRANCH 97 104
BRANCH 100 108
ATOM    108   C  SGN B   6     -24.520  50.255  16.4670  0.00  0.00     0.000 C
ATOM    109   O  SGN B   6     -25.493  51.078  15.8720  0.00  0.00     0.000 O
ATOM    110  @S  SGN B   6     -25.712  52.605  16.1700  0.00  0.00     0.000 S
ATOM    111   O  SGN B   6     -24.394  53.179  16.2900  0.00  0.00     0.000 OA
ATOM    112   O  SGN B   6     -26.443  53.144  15.0330  0.00  0.00     0.000 OA
ATOM    113   O  SGN B   6     -26.461  52.659  17.4050  0.00  0.00     0.000 OA
ENDBRANCH 100 108
ENDBRANCH 95 99
ENDBRANCH 79 95
ENDBRANCH 78 82
ENDBRANCH 58 78
ENDBRANCH 57 61
ENDBRANCH 41 57
ENDBRANCH 40 44
ENDBRANCH 20 40
ENDBRANCH 19 23
ENDBRANCH 1 19
TORSDOF 22
ENDMDL
MODEL 40
REMARK VINA RESULT:      -0.5      2.997      5.263
ROOT
ATOM      1  C1  IDS B   1     -17.332  52.400  13.7440  0.00  0.00     0.000 C
ATOM      2  C2  IDS B   1     -15.936  52.739  13.2910  0.00  0.00     0.000 C
ATOM      3  C3  IDS B   1     -15.103  51.569  12.7150  0.00  0.00     0.000 C
ATOM      4  C4  IDS B   1     -15.975  50.438  12.0520  0.00  0.00     0.000 C
ATOM      5  C5  IDS B   1     -17.388  50.331  12.6750  0.00  0.00     0.000 C
ATOM      6  O5  IDS B   1     -17.971  51.603  12.7670  0.00  0.00     0.000 O
ATOM      7   O  IDS B   1     -14.314  51.048  13.7810  0.00  0.00     0.000 O
ATOM      9  HD  IDS B   1     -14.427  50.437  13.1780  0.00  0.00     0.000 HD
ATOM      9   O  IDS B   1     -16.124  50.757  10.6870  0.00  0.00     0.000 O
ATOM     11  HD  IDS B   1     -16.237  50.145  10.0850  0.00  0.00     0.000 HD
ENDROOT
BRANCH 2 11
ATOM     11   O  IDS B   1     -15.990  53.706  12.2990  0.00  0.00     0.000 O
ATOM     12  @S  IDS B   1     -15.385  55.118  12.4240  0.00  0.00     0.000 S
ATOM     13   O  IDS B   1     -15.390  55.372  13.8510  0.00  0.00     0.000 OA
ATOM     14   O  IDS B   1     -14.043  55.045  11.8760  0.00  0.00     0.000 OA
ATOM     15   O  IDS B   1     -16.257  55.991  11.6640  0.00  0.00     0.000 OA
ENDBRANCH 2 11
BRANCH 5 16
ATOM     16 @CA  IDS B   1     -18.359  49.367  12.0010  0.00  0.00     0.000 C
ATOM     17   O  IDS B   1     -18.894  48.451  12.6220  0.00  0.00     0.000 OA
ATOM     18   O  IDS B   1     -18.641  49.496  10.8120  0.00  0.00     0.000 OA
ENDBRANCH 5 16
BRANCH 1 19
ATOM     19  O4  SGN B   2     -17.236  51.709  14.9720  0.00  0.00     0.000 O
BRANCH 19 23
ATOM     20  C1  SGN B   2     -20.285  53.552  16.9890  0.00  0.00     0.000 C
ATOM     21  C2  SGN B   2     -18.898  54.152  17.0610  0.00  0.00     0.000 C
ATOM     22  C3  SGN B   2     -18.116  53.734  15.8690  0.00  0.00     0.000 C
ATOM     23  C4  SGN B   2     -18.005  52.231  15.9950  0.00  0.00     0.000 C
ATOM     24  C5  SGN B   2     -19.395  51.722  15.8290  0.00  0.00     0.000 C
ATOM     25  O5  SGN B   2     -20.167  52.139  16.8970  0.00  0.00     0.000 O
ATOM     26   O  SGN B   2     -16.861  54.316  15.9140  0.00  0.00     0.000 O
ATOM     28  HD  SGN B   2     -16.019  54.503  15.9920  0.00  0.00     0.000 HD
BRANCH 21 30
ATOM     28   N  SGN B   2     -19.806  55.163  17.5190  0.00  0.00     0.000 N
ATOM     30  HD  SGN B   2     -19.642  55.767  16.9200  0.00  0.00     0.000 HD
ATOM     30 @NS  SGN B   2     -19.264  56.174  18.6700  0.00  0.00     0.000 S
ATOM     31   O  SGN B   2     -17.879  55.929  18.8940  0.00  0.00     0.000 OA
ATOM     32   O  SGN B   2     -19.481  57.448  18.1200  0.00  0.00     0.000 OA
ATOM     33   O  SGN B   2     -20.025  55.897  19.8300  0.00  0.00     0.000 OA
ENDBRANCH 21 30
BRANCH 24 34
ATOM     34   C  SGN B   2     -19.527  50.246  15.7560  0.00  0.00     0.000 C
ATOM     35   O  SGN B   2     -19.973  49.805  16.9890  0.00  0.00     0.000 O
ATOM     36  @S  SGN B   2     -20.436  48.377  17.2540  0.00  0.00     0.000 S
ATOM     37   O  SGN B   2     -19.238  47.690  17.6960  0.00  0.00     0.000 OA
ATOM     38   O  SGN B   2     -21.465  48.455  18.2640  0.00  0.00     0.000 OA
ATOM     39   O  SGN B   2     -20.951  47.900  15.9780  0.00  0.00     0.000 OA
ENDBRANCH 24 34
BRANCH 20 40
ATOM     40  O4  IDS B   3     -20.987  54.073  15.9030  0.00  0.00     0.000 O
BRANCH 40 44
ATOM     41  C1  IDS B   3     -23.986  55.024  14.3520  0.00  0.00     0.000 C
ATOM     42  C2  IDS B   3     -23.912  54.873  15.8700  0.00  0.00     0.000 C
ATOM     43  C3  IDS B   3     -23.230  53.588  16.3790  0.00  0.00     0.000 C
ATOM     44  C4  IDS B   3     -22.029  53.236  15.5240  0.00  0.00     0.000 C
ATOM     45  C5  IDS B   3     -22.319  53.401  14.0240  0.00  0.00     0.000 C
ATOM     46  O5  IDS B   3     -22.742  54.689  13.7560  0.00  0.00     0.000 O
ATOM     47   O  IDS B   3     -24.146  52.516  16.3190  0.00  0.00     0.000 O
ATOM     49  HD  IDS B   3     -23.458  52.952  16.6120  0.00  0.00     0.000 HD
BRANCH 42 49
ATOM     49   O  IDS B   3     -23.194  55.955  16.3900  0.00  0.00     0.000 O
ATOM     50   O  IDS B   3     -24.876  56.369  17.9860  0.00  0.00     0.000 OA
ATOM     51   O  IDS B   3     -22.607  56.610  18.6160  0.00  0.00     0.000 OA
ATOM     52   O  IDS B   3     -23.589  58.125  17.0940  0.00  0.00     0.000 OA
ATOM     53  @S  IDS B   3     -23.588  56.812  17.5960  0.00  0.00     0.000 S
ENDBRANCH 42 49
BRANCH 45 54
ATOM     54 @CA  IDS B   3     -21.168  53.033  13.0910  0.00  0.00     0.000 C
ATOM     55   O  IDS B   3     -20.355  53.845  12.7420  0.00  0.00     0.000 OA
ATOM     56   O  IDS B   3     -21.026  51.923  12.6960  0.00  0.00     0.000 OA
ENDBRANCH 45 54
BRANCH 41 57
ATOM     57  O4  SGN B   4     -25.021  54.240  13.8560  0.00  0.00     0.000 O
BRANCH 57 61
ATOM     58  C1  SGN B   4     -27.380  54.231  10.4750  0.00  0.00     0.000 C
ATOM     59  C2  SGN B   4     -26.293  53.170  10.5190  0.00  0.00     0.000 C
ATOM     60  C3  SGN B   4     -25.768  53.027  11.9450  0.00  0.00     0.000 C
ATOM     61  C4  SGN B   4     -25.283  54.374  12.4930  0.00  0.00     0.000 C
ATOM     62  C5  SGN B   4     -26.413  55.384  12.3190  0.00  0.00     0.000 C
ATOM     63  O5  SGN B   4     -26.845  55.446  10.9720  0.00  0.00     0.000 O
ATOM     64   O  SGN B   4     -24.680  52.126  11.9400  0.00  0.00     0.000 O
ATOM     66  HD  SGN B   4     -23.921  52.438  12.2160  0.00  0.00     0.000 HD
BRANCH 59 68
ATOM     66   N  SGN B   4     -26.075  52.736   9.1550  0.00  0.00     0.000 N
ATOM     68  HD  SGN B   4     -26.348  53.451   9.5610  0.00  0.00     0.000 HD
ATOM     68 @NS  SGN B   4     -27.130  51.700   8.4450  0.00  0.00     0.000 S
ATOM     69   O  SGN B   4     -27.558  50.750   9.4300  0.00  0.00     0.000 OA
ATOM     70   O  SGN B   4     -28.226  52.500   7.9820  0.00  0.00     0.000 OA
ATOM     71   O  SGN B   4     -26.377  51.098   7.3870  0.00  0.00     0.000 OA
ENDBRANCH 59 68
BRANCH 62 72
ATOM     72   C  SGN B   4     -26.009  56.797  12.7120  0.00  0.00     0.000 C
ATOM     73   O  SGN B   4     -25.074  57.199  11.7550  0.00  0.00     0.000 O
ATOM     74  @S  SGN B   4     -24.822  58.625  11.2330  0.00  0.00     0.000 S
ATOM     75   O  SGN B   4     -24.484  59.429  12.3490  0.00  0.00     0.000 OA
ATOM     76   O  SGN B   4     -23.730  58.476  10.3200  0.00  0.00     0.000 OA
ATOM     77   O  SGN B   4     -26.049  59.044  10.6430  0.00  0.00     0.000 OA
ENDBRANCH 62 72
BRANCH 58 78
ATOM     78  O4  IDS B   5     -28.509  53.802  11.2100  0.00  0.00     0.000 O
BRANCH 78 82
ATOM     79  C1  IDS B   5     -31.582  52.813  12.4650  0.00  0.00     0.000 C
ATOM     80  C2  IDS B   5     -31.012  52.100  11.2770  0.00  0.00     0.000 C
ATOM     81  C3  IDS B   5     -30.543  53.033  10.1640  0.00  0.00     0.000 C
ATOM     82  C4  IDS B   5     -29.753  54.215  10.6860  0.00  0.00     0.000 C
ATOM     83  C5  IDS B   5     -30.552  54.843  11.7830  0.00  0.00     0.000 C
ATOM     84  O5  IDS B   5     -30.750  53.902  12.8220  0.00  0.00     0.000 O
ATOM     85   O  IDS B   5     -31.686  53.537   9.5160  0.00  0.00     0.000 O
ATOM     87  HD  IDS B   5     -31.025  53.977   9.8630  0.00  0.00     0.000 HD
BRANCH 80 87
ATOM     87   O  IDS B   5     -29.914  51.386  11.6900  0.00  0.00     0.000 O
ATOM     88  @S  IDS B   5     -29.834  49.877  11.9340  0.00  0.00     0.000 S
ATOM     89   O  IDS B   5     -30.312  49.286  10.7370  0.00  0.00     0.000 OA
ATOM     90   O  IDS B   5     -28.466  49.612  12.2100  0.00  0.00     0.000 OA
ATOM     91   O  IDS B   5     -30.666  49.616  13.0560  0.00  0.00     0.000 OA
ENDBRANCH 80 87
BRANCH 83 92
ATOM     92 @CA  IDS B   5     -29.975  56.160  12.2870  0.00  0.00     0.000 C
ATOM     93   O  IDS B   5     -30.075  57.193  11.6200  0.00  0.00     0.000 OA
ATOM     94   O  IDS B   5     -29.389  56.216  13.3750  0.00  0.00     0.000 OA
ENDBRANCH 83 92
BRANCH 79 95
ATOM     95  O4  SGN B   6     -32.882  53.214  12.1860  0.00  0.00     0.000 O
BRANCH 95 99
ATOM     96  C1  SGN B   6     -35.705  55.585  14.0880  0.00  0.00     0.000 C
ATOM     97  C2  SGN B   6     -34.646  56.327  13.2810  0.00  0.00     0.000 C
ATOM     98  C3  SGN B   6     -34.094  55.329  12.2630  0.00  0.00     0.000 C
ATOM     99  C4  SGN B   6     -33.396  54.196  13.0670  0.00  0.00     0.000 C
ATOM    100  C5  SGN B   6     -34.491  53.545  13.9610  0.00  0.00     0.000 C
ATOM    101  O5  SGN B   6     -35.120  54.511  14.7980  0.00  0.00     0.000 O
BRANCH 97 104
ATOM    102   N  SGN B   6     -34.487  57.530  14.1040  0.00  0.00     0.000 N
ATOM    104  HD  SGN B   6     -35.266  57.844  14.3150  0.00  0.00     0.000 HD
ATOM    104 @NS  SGN B   6     -35.033  58.967  13.4790  0.00  0.00     0.000 S
ATOM    105   O  SGN B   6     -35.616  58.688  12.1840  0.00  0.00     0.000 OA
ATOM    106   O  SGN B   6     -36.003  59.486  14.4150  0.00  0.00     0.000 OA
ATOM    107   O  SGN B   6     -33.871  59.818  13.3590  0.00  0.00     0.000 OA
ENDBRANCH 97 104
BRANCH 100 108
ATOM    108   C  SGN B   6     -34.024  52.428  14.8860  0.00  0.00     0.000 C
ATOM    109   O  SGN B   6     -34.387  52.736  16.2090  0.00  0.00     0.000 O
ATOM    110  @S  SGN B   6     -34.090  51.851  17.4740  0.00  0.00     0.000 S
ATOM    111   O  SGN B   6     -32.753  51.338  17.2930  0.00  0.00     0.000 OA
ATOM    112   O  SGN B   6     -34.186  52.734  18.6250  0.00  0.00     0.000 OA
ATOM    113   O  SGN B   6     -35.093  50.811  17.4680  0.00  0.00     0.000 OA
ENDBRANCH 100 108
ENDBRANCH 95 99
ENDBRANCH 79 95
ENDBRANCH 78 82
ENDBRANCH 58 78
ENDBRANCH 57 61
ENDBRANCH 41 57
ENDBRANCH 40 44
ENDBRANCH 20 40
ENDBRANCH 19 23
ENDBRANCH 1 19
TORSDOF 22
ENDMDL
MODEL 41
REMARK VINA RESULT:      -0.4      2.303      3.978
ROOT
ATOM      1  C1  IDS B   1     -16.854  52.192  14.3490  0.00  0.00     0.000 C
ATOM      2  C2  IDS B   1     -15.419  52.528  14.0380  0.00  0.00     0.000 C
ATOM      3  C3  IDS B   1     -14.495  51.330  13.7130  0.00  0.00     0.000 C
ATOM      4  C4  IDS B   1     -15.250  50.101  13.0820  0.00  0.00     0.000 C
ATOM      5  C5  IDS B   1     -16.730  50.016  13.5300  0.00  0.00     0.000 C
ATOM      6  O5  IDS B   1     -17.346  51.269  13.3990  0.00  0.00     0.000 O
ATOM      7   O  IDS B   1     -13.840  50.962  14.9230  0.00  0.00     0.000 O
ATOM      9  HD  IDS B   1     -13.861  50.282  14.3860  0.00  0.00     0.000 HD
ATOM      9   O  IDS B   1     -15.229  50.258  11.6810  0.00  0.00     0.000 O
ATOM     11  HD  IDS B   1     -15.250  49.578  11.1450  0.00  0.00     0.000 HD
ENDROOT
BRANCH 2 11
ATOM     11   O  IDS B   1     -15.365  53.374  12.9420  0.00  0.00     0.000 O
ATOM     12  @S  IDS B   1     -14.249  54.408  12.6930  0.00  0.00     0.000 S
ATOM     13   O  IDS B   1     -13.760  54.717  14.0210  0.00  0.00     0.000 OA
ATOM     14   O  IDS B   1     -13.249  53.751  11.8700  0.00  0.00     0.000 OA
ATOM     15   O  IDS B   1     -14.886  55.523  12.0210  0.00  0.00     0.000 OA
ENDBRANCH 2 11
BRANCH 5 16
ATOM     16 @CA  IDS B   1     -17.586  48.948  12.8560  0.00  0.00     0.000 C
ATOM     17   O  IDS B   1     -17.174  47.802  12.6900  0.00  0.00     0.000 OA
ATOM     18   O  IDS B   1     -18.723  49.210  12.4740  0.00  0.00     0.000 OA
ENDBRANCH 5 16
BRANCH 1 19
ATOM     19  O4  SGN B   2     -16.904  51.649  15.6520  0.00  0.00     0.000 O
BRANCH 19 23
ATOM     20  C1  SGN B   2     -20.202  53.679  16.9760  0.00  0.00     0.000 C
ATOM     21  C2  SGN B   2     -18.831  54.210  17.3330  0.00  0.00     0.000 C
ATOM     22  C3  SGN B   2     -17.841  53.731  16.3330  0.00  0.00     0.000 C
ATOM     23  C4  SGN B   2     -17.840  52.228  16.4880  0.00  0.00     0.000 C
ATOM     24  C5  SGN B   2     -19.190  51.787  16.0390  0.00  0.00     0.000 C
ATOM     25  O5  SGN B   2     -20.143  52.261  16.9200  0.00  0.00     0.000 O
ATOM     26   O  SGN B   2     -16.593  54.249  16.6350  0.00  0.00     0.000 O
ATOM     28  HD  SGN B   2     -15.777  54.394  16.8860  0.00  0.00     0.000 HD
BRANCH 21 30
ATOM     28   N  SGN B   2     -19.861  55.094  17.7940  0.00  0.00     0.000 N
ATOM     30  HD  SGN B   2     -19.847  55.662  17.1410  0.00  0.00     0.000 HD
ATOM     30 @NS  SGN B   2     -19.415  56.274  18.8180  0.00  0.00     0.000 S
ATOM     31   O  SGN B   2     -17.995  56.280  18.9370  0.00  0.00     0.000 OA
ATOM     32   O  SGN B   2     -19.885  57.444  18.1980  0.00  0.00     0.000 OA
ATOM     33   O  SGN B   2     -20.029  55.977  20.0570  0.00  0.00     0.000 OA
ENDBRANCH 21 30
BRANCH 24 34
ATOM     34   C  SGN B   2     -19.383  50.318  15.9490  0.00  0.00     0.000 C
ATOM     35   O  SGN B   2     -19.279  49.805  17.2290  0.00  0.00     0.000 O
ATOM     36  @S  SGN B   2     -19.628  48.364  17.5870  0.00  0.00     0.000 S
ATOM     37   O  SGN B   2     -18.376  47.649  17.4440  0.00  0.00     0.000 OA
ATOM     38   O  SGN B   2     -20.132  48.384  18.9410  0.00  0.00     0.000 OA
ATOM     39   O  SGN B   2     -20.647  47.968  16.6250  0.00  0.00     0.000 OA
ENDBRANCH 24 34
BRANCH 20 40
ATOM     40  O4  IDS B   3     -20.634  54.217  15.7640  0.00  0.00     0.000 O
BRANCH 40 44
ATOM     41  C1  IDS B   3     -23.584  55.359  14.2490  0.00  0.00     0.000 C
ATOM     42  C2  IDS B   3     -23.578  54.942  15.7190  0.00  0.00     0.000 C
ATOM     43  C3  IDS B   3     -22.880  53.604  16.0290  0.00  0.00     0.000 C
ATOM     44  C4  IDS B   3     -21.629  53.437  15.1900  0.00  0.00     0.000 C
ATOM     45  C5  IDS B   3     -21.852  53.859  13.7290  0.00  0.00     0.000 C
ATOM     46  O5  IDS B   3     -22.302  55.164  13.6700  0.00  0.00     0.000 O
ATOM     47   O  IDS B   3     -23.758  52.539  15.7320  0.00  0.00     0.000 O
ATOM     49  HD  IDS B   3     -23.099  52.932  16.1330  0.00  0.00     0.000 HD
BRANCH 42 49
ATOM     49   O  IDS B   3     -22.921  55.931  16.4580  0.00  0.00     0.000 O
ATOM     50   O  IDS B   3     -24.962  56.684  17.3610  0.00  0.00     0.000 OA
ATOM     51   O  IDS B   3     -23.046  56.615  18.7480  0.00  0.00     0.000 OA
ATOM     52   O  IDS B   3     -23.181  58.172  16.9800  0.00  0.00     0.000 OA
ATOM     53  @S  IDS B   3     -23.566  56.905  17.4490  0.00  0.00     0.000 S
ENDBRANCH 42 49
BRANCH 45 54
ATOM     54 @CA  IDS B   3     -20.647  53.689  12.8080  0.00  0.00     0.000 C
ATOM     55   O  IDS B   3     -20.047  54.635  12.3730  0.00  0.00     0.000 OA
ATOM     56   O  IDS B   3     -20.247  52.613  12.5080  0.00  0.00     0.000 OA
ENDBRANCH 45 54
BRANCH 41 57
ATOM     57  O4  SGN B   4     -24.568  54.652  13.5680  0.00  0.00     0.000 O
BRANCH 57 61
ATOM     58  C1  SGN B   4     -27.358  55.218  10.5870  0.00  0.00     0.000 C
ATOM     59  C2  SGN B   4     -25.934  54.976  10.1150  0.00  0.00     0.000 C
ATOM     60  C3  SGN B   4     -25.101  54.403  11.2580  0.00  0.00     0.000 C
ATOM     61  C4  SGN B   4     -25.154  55.314  12.4910  0.00  0.00     0.000 C
ATOM     62  C5  SGN B   4     -26.622  55.566  12.8230  0.00  0.00     0.000 C
ATOM     63  O5  SGN B   4     -27.320  56.086  11.7070  0.00  0.00     0.000 O
ATOM     64   O  SGN B   4     -23.758  54.299  10.8340  0.00  0.00     0.000 O
ATOM     66  HD  SGN B   4     -23.175  54.750  11.2890  0.00  0.00     0.000 HD
BRANCH 59 68
ATOM     66   N  SGN B   4     -25.525  55.153   8.7370  0.00  0.00     0.000 N
ATOM     68  HD  SGN B   4     -25.853  55.641   9.3730  0.00  0.00     0.000 HD
ATOM     68 @NS  SGN B   4     -26.467  54.584   7.5210  0.00  0.00     0.000 S
ATOM     69   O  SGN B   4     -27.030  53.333   7.9370  0.00  0.00     0.000 OA
ATOM     70   O  SGN B   4     -27.487  55.570   7.3120  0.00  0.00     0.000 OA
ATOM     71   O  SGN B   4     -25.572  54.447   6.4130  0.00  0.00     0.000 OA
ENDBRANCH 59 68
BRANCH 62 72
ATOM     72   C  SGN B   4     -26.809  56.563  13.9570  0.00  0.00     0.000 C
ATOM     73   O  SGN B   4     -26.398  57.795  13.4430  0.00  0.00     0.000 O
ATOM     74  @S  SGN B   4     -26.932  59.190  13.8140  0.00  0.00     0.000 S
ATOM     75   O  SGN B   4     -26.740  59.359  15.2070  0.00  0.00     0.000 OA
ATOM     76   O  SGN B   4     -26.131  60.090  13.0420  0.00  0.00     0.000 OA
ATOM     77   O  SGN B   4     -28.317  59.177  13.4790  0.00  0.00     0.000 OA
ENDBRANCH 62 72
BRANCH 58 78
ATOM     78  O4  IDS B   5     -27.989  53.988  10.8820  0.00  0.00     0.000 O
BRANCH 78 82
ATOM     79  C1  IDS B   5     -30.005  51.223  11.4160  0.00  0.00     0.000 C
ATOM     80  C2  IDS B   5     -29.467  51.482  10.0420  0.00  0.00     0.000 C
ATOM     81  C3  IDS B   5     -29.691  52.911   9.5520  0.00  0.00     0.000 C
ATOM     82  C4  IDS B   5     -29.373  53.948  10.6100  0.00  0.00     0.000 C
ATOM     83  C5  IDS B   5     -30.098  53.555  11.8580  0.00  0.00     0.000 C
ATOM     84  O5  IDS B   5     -29.650  52.283  12.2850  0.00  0.00     0.000 O
ATOM     85   O  IDS B   5     -31.051  53.043   9.2200  0.00  0.00     0.000 O
ATOM     87  HD  IDS B   5     -30.577  53.534   9.7520  0.00  0.00     0.000 HD
BRANCH 80 87
ATOM     87   O  IDS B   5     -28.110  51.275  10.0660  0.00  0.00     0.000 O
ATOM     88  @S  IDS B   5     -27.326  50.218   9.2860  0.00  0.00     0.000 S
ATOM     89   O  IDS B   5     -27.715  50.394   7.9330  0.00  0.00     0.000 OA
ATOM     90   O  IDS B   5     -25.956  50.499   9.5400  0.00  0.00     0.000 OA
ATOM     91   O  IDS B   5     -27.721  48.962   9.8210  0.00  0.00     0.000 OA
ENDBRANCH 80 87
BRANCH 83 92
ATOM     92 @CA  IDS B   5     -30.030  54.603  12.9620  0.00  0.00     0.000 C
ATOM     93   O  IDS B   5     -29.610  54.315  14.0860  0.00  0.00     0.000 OA
ATOM     94   O  IDS B   5     -30.400  55.764  12.7520  0.00  0.00     0.000 OA
ENDBRANCH 83 92
BRANCH 79 95
ATOM     95  O4  SGN B   6     -31.380  51.037  11.3480  0.00  0.00     0.000 O
BRANCH 95 99
ATOM     96  C1  SGN B   6     -34.254  49.241  13.7410  0.00  0.00     0.000 C
ATOM     97  C2  SGN B   6     -33.249  50.133  14.4610  0.00  0.00     0.000 C
ATOM     98  C3  SGN B   6     -32.681  51.087  13.4110  0.00  0.00     0.000 C
ATOM     99  C4  SGN B   6     -31.914  50.219  12.3730  0.00  0.00     0.000 C
ATOM    100  C5  SGN B   6     -32.956  49.247  11.7500  0.00  0.00     0.000 C
ATOM    101  O5  SGN B   6     -33.604  48.468  12.7500  0.00  0.00     0.000 O
BRANCH 97 104
ATOM    102   N  SGN B   6     -34.260  50.249  15.5160  0.00  0.00     0.000 N
ATOM    104  HD  SGN B   6     -34.104  50.955  15.9930  0.00  0.00     0.000 HD
ATOM    104 @NS  SGN B   6     -33.747  50.127  17.0890  0.00  0.00     0.000 S
ATOM    105   O  SGN B   6     -32.310  49.956  17.0700  0.00  0.00     0.000 OA
ATOM    106   O  SGN B   6     -34.142  51.349  17.7520  0.00  0.00     0.000 OA
ATOM    107   O  SGN B   6     -34.408  48.964  17.6370  0.00  0.00     0.000 OA
ENDBRANCH 97 104
BRANCH 100 108
ATOM    108   C  SGN B   6     -32.417  48.252  10.7280  0.00  0.00     0.000 C
ATOM    109   O  SGN B   6     -33.407  47.298  10.4380  0.00  0.00     0.000 O
ATOM    110  @S  SGN B   6     -33.259  46.093   9.4400  0.00  0.00     0.000 S
ATOM    111   O  SGN B   6     -31.927  45.574   9.6400  0.00  0.00     0.000 OA
ATOM    112   O  SGN B   6     -34.284  45.128   9.8060  0.00  0.00     0.000 OA
ATOM    113   O  SGN B   6     -33.449  46.652   8.1210  0.00  0.00     0.000 OA
ENDBRANCH 100 108
ENDBRANCH 95 99
ENDBRANCH 79 95
ENDBRANCH 78 82
ENDBRANCH 58 78
ENDBRANCH 57 61
ENDBRANCH 41 57
ENDBRANCH 40 44
ENDBRANCH 20 40
ENDBRANCH 19 23
ENDBRANCH 1 19
TORSDOF 22
ENDMDL
MODEL 42
REMARK VINA RESULT:      -0.3      3.530      8.030
ROOT
ATOM      1  C1  IDS B   1     -15.529  58.634  13.6130  0.00  0.00     0.000 C
ATOM      2  C2  IDS B   1     -15.022  58.808  12.2050  0.00  0.00     0.000 C
ATOM      3  C3  IDS B   1     -15.957  59.569  11.2340  0.00  0.00     0.000 C
ATOM      4  C4  IDS B   1     -16.898  60.610  11.9480  0.00  0.00     0.000 C
ATOM      5  C5  IDS B   1     -17.227  60.214  13.4080  0.00  0.00     0.000 C
ATOM      6  O5  IDS B   1     -16.053  59.857  14.0870  0.00  0.00     0.000 O
ATOM      7   O  IDS B   1     -16.716  58.594  10.5270  0.00  0.00     0.000 O
ATOM      9  HD  IDS B   1     -17.144  59.346  10.5320  0.00  0.00     0.000 HD
ATOM      9   O  IDS B   1     -16.225  61.848  11.9750  0.00  0.00     0.000 O
ATOM     11  HD  IDS B   1     -16.653  62.601  11.9790  0.00  0.00     0.000 HD
ENDROOT
BRANCH 2 11
ATOM     11   O  IDS B   1     -13.825  59.505  12.2230  0.00  0.00     0.000 O
ATOM     12  @S  IDS B   1     -12.696  59.326  11.1890  0.00  0.00     0.000 S
ATOM     13   O  IDS B   1     -12.875  57.970  10.7120  0.00  0.00     0.000 OA
ATOM     14   O  IDS B   1     -12.922  60.316  10.1510  0.00  0.00     0.000 OA
ATOM     15   O  IDS B   1     -11.459  59.541  11.9130  0.00  0.00     0.000 OA
ENDBRANCH 2 11
BRANCH 5 16
ATOM     16 @CA  IDS B   1     -18.009  61.233  14.2310  0.00  0.00     0.000 C
ATOM     17   O  IDS B   1     -18.500  60.942  15.3200  0.00  0.00     0.000 OA
ATOM     18   O  IDS B   1     -18.155  62.383  13.8240  0.00  0.00     0.000 OA
ENDBRANCH 5 16
BRANCH 1 19
ATOM     19  O4  SGN B   2     -16.524  57.632  13.5980  0.00  0.00     0.000 O
BRANCH 19 23
ATOM     20  C1  SGN B   2     -17.528  54.692  16.2640  0.00  0.00     0.000 C
ATOM     21  C2  SGN B   2     -18.006  56.103  16.5250  0.00  0.00     0.000 C
ATOM     22  C3  SGN B   2     -18.063  56.851  15.2410  0.00  0.00     0.000 C
ATOM     23  C4  SGN B   2     -16.629  56.899  14.7660  0.00  0.00     0.000 C
ATOM     24  C5  SGN B   2     -16.272  55.487  14.4550  0.00  0.00     0.000 C
ATOM     25  O5  SGN B   2     -16.262  54.749  15.6230  0.00  0.00     0.000 O
ATOM     26   O  SGN B   2     -18.539  58.129  15.4730  0.00  0.00     0.000 O
ATOM     28  HD  SGN B   2     -18.653  58.979  15.5930  0.00  0.00     0.000 HD
BRANCH 21 30
ATOM     28   N  SGN B   2     -19.258  56.193  17.2190  0.00  0.00     0.000 N
ATOM     30  HD  SGN B   2     -19.241  57.037  17.4090  0.00  0.00     0.000 HD
ATOM     30 @NS  SGN B   2     -19.246  55.845  18.8060  0.00  0.00     0.000 S
ATOM     31   O  SGN B   2     -17.901  55.657  19.2350  0.00  0.00     0.000 OA
ATOM     32   O  SGN B   2     -19.821  56.982  19.3970  0.00  0.00     0.000 OA
ATOM     33   O  SGN B   2     -20.000  54.658  18.9570  0.00  0.00     0.000 OA
ENDBRANCH 21 30
BRANCH 24 34
ATOM     34   C  SGN B   2     -14.947  55.292  13.8140  0.00  0.00     0.000 C
ATOM     35   O  SGN B   2     -15.055  54.214  12.9540  0.00  0.00     0.000 O
ATOM     36  @S  SGN B   2     -13.973  53.828  11.9520  0.00  0.00     0.000 S
ATOM     37   O  SGN B   2     -13.143  52.881  12.6700  0.00  0.00     0.000 OA
ATOM     38   O  SGN B   2     -14.650  53.255  10.8110  0.00  0.00     0.000 OA
ATOM     39   O  SGN B   2     -13.296  55.074  11.6210  0.00  0.00     0.000 OA
ENDBRANCH 24 34
BRANCH 20 40
ATOM     40  O4  IDS B   3     -18.457  53.997  15.4890  0.00  0.00     0.000 O
BRANCH 40 44
ATOM     41  C1  IDS B   3     -20.968  51.714  14.6020  0.00  0.00     0.000 C
ATOM     42  C2  IDS B   3     -21.059  52.497  15.9110  0.00  0.00     0.000 C
ATOM     43  C3  IDS B   3     -19.772  52.530  16.7580  0.00  0.00     0.000 C
ATOM     44  C4  IDS B   3     -18.546  52.667  15.8780  0.00  0.00     0.000 C
ATOM     45  C5  IDS B   3     -18.620  51.760  14.6390  0.00  0.00     0.000 C
ATOM     46  O5  IDS B   3     -19.765  52.028  13.9160  0.00  0.00     0.000 O
ATOM     47   O  IDS B   3     -19.661  51.326  17.4880  0.00  0.00     0.000 O
ATOM     49  HD  IDS B   3     -19.529  52.165  17.3230  0.00  0.00     0.000 HD
BRANCH 42 49
ATOM     49   O  IDS B   3     -21.390  53.823  15.6130  0.00  0.00     0.000 O
ATOM     50   O  IDS B   3     -23.595  53.496  16.3750  0.00  0.00     0.000 OA
ATOM     51   O  IDS B   3     -22.507  55.545  16.8440  0.00  0.00     0.000 OA
ATOM     52   O  IDS B   3     -23.123  55.003  14.6310  0.00  0.00     0.000 OA
ATOM     53  @S  IDS B   3     -22.732  54.508  15.8860  0.00  0.00     0.000 S
ENDBRANCH 42 49
BRANCH 45 54
ATOM     54 @CA  IDS B   3     -17.404  51.813  13.7160  0.00  0.00     0.000 C
ATOM     55   O  IDS B   3     -16.299  51.563  14.1140  0.00  0.00     0.000 OA
ATOM     56   O  IDS B   3     -17.515  52.082  12.5660  0.00  0.00     0.000 OA
ENDBRANCH 45 54
BRANCH 41 57
ATOM     57  O4  SGN B   4     -21.069  50.353  14.8660  0.00  0.00     0.000 O
BRANCH 57 61
ATOM     58  C1  SGN B   4     -24.039  49.930  12.0380  0.00  0.00     0.000 C
ATOM     59  C2  SGN B   4     -24.405  49.488  13.4450  0.00  0.00     0.000 C
ATOM     60  C3  SGN B   4     -23.395  50.048  14.4420  0.00  0.00     0.000 C
ATOM     61  C4  SGN B   4     -21.965  49.646  14.0650  0.00  0.00     0.000 C
ATOM     62  C5  SGN B   4     -21.733  50.052  12.6120  0.00  0.00     0.000 C
ATOM     63  O5  SGN B   4     -22.718  49.498  11.7600  0.00  0.00     0.000 O
ATOM     64   O  SGN B   4     -23.684  49.528  15.7230  0.00  0.00     0.000 O
ATOM     66  HD  SGN B   4     -23.058  49.062  16.1000  0.00  0.00     0.000 HD
BRANCH 59 68
ATOM     66   N  SGN B   4     -25.484  48.970  12.6290  0.00  0.00     0.000 N
ATOM     68  HD  SGN B   4     -24.913  49.620  12.5940  0.00  0.00     0.000 HD
ATOM     68 @NS  SGN B   4     -27.042  49.220  13.0730  0.00  0.00     0.000 S
ATOM     69   O  SGN B   4     -27.125  49.121  14.5000  0.00  0.00     0.000 OA
ATOM     70   O  SGN B   4     -27.378  50.540  12.6220  0.00  0.00     0.000 OA
ATOM     71   O  SGN B   4     -27.772  48.187  12.4030  0.00  0.00     0.000 OA
ENDBRANCH 59 68
BRANCH 62 72
ATOM     72   C  SGN B   4     -20.385  49.591  12.0770  0.00  0.00     0.000 C
ATOM     73   O  SGN B   4     -20.598  48.301  11.5850  0.00  0.00     0.000 O
ATOM     74  @S  SGN B   4     -19.881  47.618  10.4080  0.00  0.00     0.000 S
ATOM     75   O  SGN B   4     -18.497  47.607  10.7050  0.00  0.00     0.000 OA
ATOM     76   O  SGN B   4     -20.439  46.300  10.3750  0.00  0.00     0.000 OA
ATOM     77   O  SGN B   4     -20.161  48.419   9.2650  0.00  0.00     0.000 OA
ENDBRANCH 62 72
BRANCH 58 78
ATOM     78  O4  IDS B   5     -24.183  51.330  11.9150  0.00  0.00     0.000 O
BRANCH 78 82
ATOM     79  C1  IDS B   5     -24.790  54.641  11.0970  0.00  0.00     0.000 C
ATOM     80  C2  IDS B   5     -25.949  53.722  11.3390  0.00  0.00     0.000 C
ATOM     81  C3  IDS B   5     -25.867  52.409  10.5640  0.00  0.00     0.000 C
ATOM     82  C4  IDS B   5     -24.487  51.786  10.6140  0.00  0.00     0.000 C
ATOM     83  C5  IDS B   5     -23.501  52.843  10.2320  0.00  0.00     0.000 C
ATOM     84  O5  IDS B   5     -23.575  53.915  11.1520  0.00  0.00     0.000 O
ATOM     85   O  IDS B   5     -26.160  52.687   9.2160  0.00  0.00     0.000 O
ATOM     87  HD  IDS B   5     -25.469  52.282   9.5440  0.00  0.00     0.000 HD
BRANCH 80 87
ATOM     87   O  IDS B   5     -25.969  53.398  12.6730  0.00  0.00     0.000 O
ATOM     88  @S  IDS B   5     -26.844  54.028  13.7600  0.00  0.00     0.000 S
ATOM     89   O  IDS B   5     -28.170  53.930  13.2680  0.00  0.00     0.000 OA
ATOM     90   O  IDS B   5     -26.597  53.263  14.9320  0.00  0.00     0.000 OA
ATOM     91   O  IDS B   5     -26.397  55.370  13.8950  0.00  0.00     0.000 OA
ENDBRANCH 80 87
BRANCH 83 92
ATOM     92 @CA  IDS B   5     -22.080  52.320  10.0530  0.00  0.00     0.000 C
ATOM     93   O  IDS B   5     -21.832  51.418   9.2500  0.00  0.00     0.000 OA
ATOM     94   O  IDS B   5     -21.149  52.790  10.7180  0.00  0.00     0.000 OA
ENDBRANCH 83 92
BRANCH 79 95
ATOM     95  O4  SGN B   6     -24.960  55.290   9.8810  0.00  0.00     0.000 O
BRANCH 95 99
ATOM     96  C1  SGN B   6     -23.313  58.600   7.9980  0.00  0.00     0.000 C
ATOM     97  C2  SGN B   6     -22.331  57.507   8.4040  0.00  0.00     0.000 C
ATOM     98  C3  SGN B   6     -23.144  56.219   8.5430  0.00  0.00     0.000 C
ATOM     99  C4  SGN B   6     -24.148  56.438   9.7100  0.00  0.00     0.000 C
ATOM    100  C5  SGN B   6     -25.052  57.636   9.3000  0.00  0.00     0.000 C
ATOM    101  O5  SGN B   6     -24.278  58.797   9.0120  0.00  0.00     0.000 O
BRANCH 97 104
ATOM    102   N  SGN B   6     -20.915  57.129   8.3700  0.00  0.00     0.000 N
ATOM    104  HD  SGN B   6     -20.461  57.653   8.8900  0.00  0.00     0.000 HD
ATOM    104 @NS  SGN B   6     -19.840  58.232   7.7530  0.00  0.00     0.000 S
ATOM    105   O  SGN B   6     -20.586  59.418   7.3920  0.00  0.00     0.000 OA
ATOM    106   O  SGN B   6     -18.869  58.492   8.7910  0.00  0.00     0.000 OA
ATOM    107   O  SGN B   6     -19.250  57.607   6.5900  0.00  0.00     0.000 OA
ENDBRANCH 97 104
BRANCH 100 108
ATOM    108   C  SGN B   6     -26.094  58.071  10.3240  0.00  0.00     0.000 C
ATOM    109   O  SGN B   6     -26.619  59.321   9.9540  0.00  0.00     0.000 O
ATOM    110  @S  SGN B   6     -27.715  60.128  10.7410  0.00  0.00     0.000 S
ATOM    111   O  SGN B   6     -27.394  59.972  12.1390  0.00  0.00     0.000 OA
ATOM    112   O  SGN B   6     -27.600  61.510  10.3040  0.00  0.00     0.000 OA
ATOM    113   O  SGN B   6     -28.978  59.522  10.3860  0.00  0.00     0.000 OA
ENDBRANCH 100 108
ENDBRANCH 95 99
ENDBRANCH 79 95
ENDBRANCH 78 82
ENDBRANCH 58 78
ENDBRANCH 57 61
ENDBRANCH 41 57
ENDBRANCH 40 44
ENDBRANCH 20 40
ENDBRANCH 19 23
ENDBRANCH 1 19
TORSDOF 22
ENDMDL
MODEL 43
REMARK VINA RESULT:      -0.3      5.720     12.129
ROOT
ATOM      1  C1  IDS B   1     -16.390  57.569  14.8040  0.00  0.00     0.000 C
ATOM      2  C2  IDS B   1     -14.911  57.374  14.5980  0.00  0.00     0.000 C
ATOM      3  C3  IDS B   1     -14.312  58.012  13.3230  0.00  0.00     0.000 C
ATOM      4  C4  IDS B   1     -15.093  59.286  12.8260  0.00  0.00     0.000 C
ATOM      5  C5  IDS B   1     -16.591  59.256  13.2130  0.00  0.00     0.000 C
ATOM      6  O5  IDS B   1     -16.733  58.919  14.5660  0.00  0.00     0.000 O
ATOM      7   O  IDS B   1     -14.287  57.004  12.3170  0.00  0.00     0.000 O
ATOM      9  HD  IDS B   1     -14.298  57.785  11.9430  0.00  0.00     0.000 HD
ATOM      9   O  IDS B   1     -14.508  60.413  13.4390  0.00  0.00     0.000 O
ATOM     11  HD  IDS B   1     -14.519  61.195  13.0650  0.00  0.00     0.000 HD
ENDROOT
BRANCH 2 11
ATOM     11   O  IDS B   1     -14.216  57.912  15.6700  0.00  0.00     0.000 O
ATOM     12  @S  IDS B   1     -13.164  57.149  16.4980  0.00  0.00     0.000 S
ATOM     13   O  IDS B   1     -13.552  55.760  16.3570  0.00  0.00     0.000 OA
ATOM     14   O  IDS B   1     -11.874  57.432  15.8930  0.00  0.00     0.000 OA
ATOM     15   O  IDS B   1     -13.276  57.662  17.8490  0.00  0.00     0.000 OA
ENDBRANCH 2 11
BRANCH 5 16
ATOM     16 @CA  IDS B   1     -17.400  60.514  12.9080  0.00  0.00     0.000 C
ATOM     17   O  IDS B   1     -18.528  60.681  13.3650  0.00  0.00     0.000 OA
ATOM     18   O  IDS B   1     -16.928  61.402  12.2020  0.00  0.00     0.000 OA
ENDBRANCH 5 16
BRANCH 1 19
ATOM     19  O4  SGN B   2     -17.073  56.711  13.9130  0.00  0.00     0.000 O
BRANCH 19 23
ATOM     20  C1  SGN B   2     -20.438  54.464  14.5280  0.00  0.00     0.000 C
ATOM     21  C2  SGN B   2     -20.559  55.753  13.7460  0.00  0.00     0.000 C
ATOM     22  C3  SGN B   2     -19.242  56.092  13.1460  0.00  0.00     0.000 C
ATOM     23  C4  SGN B   2     -18.331  56.321  14.3300  0.00  0.00     0.000 C
ATOM     24  C5  SGN B   2     -18.204  54.990  14.9880  0.00  0.00     0.000 C
ATOM     25  O5  SGN B   2     -19.426  54.619  15.5130  0.00  0.00     0.000 O
ATOM     26   O  SGN B   2     -19.360  57.250  12.3960  0.00  0.00     0.000 O
ATOM     28  HD  SGN B   2     -19.343  58.054  12.0770  0.00  0.00     0.000 HD
BRANCH 21 30
ATOM     28   N  SGN B   2     -21.875  55.818  14.3100  0.00  0.00     0.000 N
ATOM     30  HD  SGN B   2     -22.010  54.970  14.4250  0.00  0.00     0.000 HD
ATOM     30 @NS  SGN B   2     -23.121  55.863  13.2680  0.00  0.00     0.000 S
ATOM     31   O  SGN B   2     -22.633  55.670  11.9440  0.00  0.00     0.000 OA
ATOM     32   O  SGN B   2     -23.934  54.794  13.6790  0.00  0.00     0.000 OA
ATOM     33   O  SGN B   2     -23.712  57.140  13.4130  0.00  0.00     0.000 OA
ENDBRANCH 21 30
BRANCH 24 34
ATOM     34   C  SGN B   2     -17.222  54.922  16.0990  0.00  0.00     0.000 C
ATOM     35   O  SGN B   2     -17.817  54.233  17.1400  0.00  0.00     0.000 O
ATOM     36  @S  SGN B   2     -17.063  53.766  18.3800  0.00  0.00     0.000 S
ATOM     37   O  SGN B   2     -17.211  54.859  19.3200  0.00  0.00     0.000 OA
ATOM     38   O  SGN B   2     -17.693  52.541  18.8130  0.00  0.00     0.000 OA
ATOM     39   O  SGN B   2     -15.692  53.554  17.9350  0.00  0.00     0.000 OA
ENDBRANCH 24 34
BRANCH 20 40
ATOM     40  O4  IDS B   3     -20.154  53.399  13.6730  0.00  0.00     0.000 O
BRANCH 40 44
ATOM     41  C1  IDS B   3     -20.230  50.330  11.9760  0.00  0.00     0.000 C
ATOM     42  C2  IDS B   3     -21.373  51.332  11.8190  0.00  0.00     0.000 C
ATOM     43  C3  IDS B   3     -21.908  51.943  13.1280  0.00  0.00     0.000 C
ATOM     44  C4  IDS B   3     -20.776  52.232  14.0940  0.00  0.00     0.000 C
ATOM     45  C5  IDS B   3     -19.758  51.082  14.1510  0.00  0.00     0.000 C
ATOM     46  O5  IDS B   3     -19.260  50.820  12.8890  0.00  0.00     0.000 O
ATOM     47   O  IDS B   3     -22.794  51.031  13.7430  0.00  0.00     0.000 O
ATOM     49  HD  IDS B   3     -22.462  51.810  13.5590  0.00  0.00     0.000 HD
BRANCH 42 49
ATOM     49   O  IDS B   3     -20.928  52.392  11.0210  0.00  0.00     0.000 O
ATOM     50   O  IDS B   3     -21.536  51.236   9.0600  0.00  0.00     0.000 OA
ATOM     51   O  IDS B   3     -21.900  53.572   9.1800  0.00  0.00     0.000 OA
ATOM     52   O  IDS B   3     -19.705  52.712   9.0810  0.00  0.00     0.000 OA
ATOM     53  @S  IDS B   3     -21.028  52.485   9.4960  0.00  0.00     0.000 S
ENDBRANCH 42 49
BRANCH 45 54
ATOM     54 @CA  IDS B   3     -18.602  51.280  15.1290  0.00  0.00     0.000 C
ATOM     55   O  IDS B   3     -18.733  51.088  16.3070  0.00  0.00     0.000 OA
ATOM     56   O  IDS B   3     -17.526  51.609  14.7530  0.00  0.00     0.000 OA
ENDBRANCH 45 54
BRANCH 41 57
ATOM     57  O4  SGN B   4     -20.740  49.102  12.3780  0.00  0.00     0.000 O
BRANCH 57 61
ATOM     58  C1  SGN B   4     -17.361  46.807  11.8180  0.00  0.00     0.000 C
ATOM     59  C2  SGN B   4     -18.054  47.276  10.5490  0.00  0.00     0.000 C
ATOM     60  C3  SGN B   4     -19.023  48.407  10.8770  0.00  0.00     0.000 C
ATOM     61  C4  SGN B   4     -20.024  47.982  11.9570  0.00  0.00     0.000 C
ATOM     62  C5  SGN B   4     -19.231  47.445  13.1450  0.00  0.00     0.000 C
ATOM     63  O5  SGN B   4     -18.352  46.408  12.7500  0.00  0.00     0.000 O
ATOM     64   O  SGN B   4     -19.741  48.745   9.7080  0.00  0.00     0.000 O
ATOM     66  HD  SGN B   4     -20.601  48.657   9.7460  0.00  0.00     0.000 HD
BRANCH 59 68
ATOM     66   N  SGN B   4     -17.022  46.337  10.1580  0.00  0.00     0.000 N
ATOM     68  HD  SGN B   4     -17.134  46.947  10.7620  0.00  0.00     0.000 HD
ATOM     68 @NS  SGN B   4     -16.126  46.616   8.8130  0.00  0.00     0.000 S
ATOM     69   O  SGN B   4     -16.981  47.186   7.8130  0.00  0.00     0.000 OA
ATOM     70   O  SGN B   4     -15.096  47.535   9.2040  0.00  0.00     0.000 OA
ATOM     71   O  SGN B   4     -15.628  45.326   8.4450  0.00  0.00     0.000 OA
ENDBRANCH 59 68
BRANCH 62 72
ATOM     72   C  SGN B   4     -20.119  46.871  14.2390  0.00  0.00     0.000 C
ATOM     73   O  SGN B   4     -21.072  46.093  13.5770  0.00  0.00     0.000 O
ATOM     74  @S  SGN B   4     -21.764  44.820  14.0930  0.00  0.00     0.000 S
ATOM     75   O  SGN B   4     -22.427  45.158  15.2980  0.00  0.00     0.000 OA
ATOM     76   O  SGN B   4     -22.679  44.470  13.0500  0.00  0.00     0.000 OA
ATOM     77   O  SGN B   4     -20.721  43.877  14.3220  0.00  0.00     0.000 OA
ENDBRANCH 62 72
BRANCH 58 78
ATOM     78  O4  IDS B   5     -16.528  47.830  12.3240  0.00  0.00     0.000 O
BRANCH 78 82
ATOM     79  C1  IDS B   5     -14.157  49.915  13.7480  0.00  0.00     0.000 C
ATOM     80  C2  IDS B   5     -13.913  49.356  12.3790  0.00  0.00     0.000 C
ATOM     81  C3  IDS B   5     -14.115  47.846  12.2860  0.00  0.00     0.000 C
ATOM     82  C4  IDS B   5     -15.371  47.379  12.9940  0.00  0.00     0.000 C
ATOM     83  C5  IDS B   5     -15.354  47.960  14.3720  0.00  0.00     0.000 C
ATOM     84  O5  IDS B   5     -15.348  49.373  14.2890  0.00  0.00     0.000 O
ATOM     85   O  IDS B   5     -13.017  47.226  12.9110  0.00  0.00     0.000 O
ATOM     87  HD  IDS B   5     -13.862  47.108  13.0640  0.00  0.00     0.000 HD
BRANCH 80 87
ATOM     87   O  IDS B   5     -14.809  49.933  11.5130  0.00  0.00     0.000 O
ATOM     88  @S  IDS B   5     -14.782  51.369  10.9830  0.00  0.00     0.000 S
ATOM     89   O  IDS B   5     -13.482  51.538  10.4420  0.00  0.00     0.000 OA
ATOM     90   O  IDS B   5     -15.828  51.436  10.0230  0.00  0.00     0.000 OA
ATOM     91   O  IDS B   5     -15.033  52.206  12.1040  0.00  0.00     0.000 OA
ENDBRANCH 80 87
BRANCH 83 92
ATOM     92 @CA  IDS B   5     -16.461  47.430  15.2750  0.00  0.00     0.000 C
ATOM     93   O  IDS B   5     -16.625  46.217  15.4320  0.00  0.00     0.000 OA
ATOM     94   O  IDS B   5     -17.219  48.208  15.8650  0.00  0.00     0.000 OA
ENDBRANCH 83 92
BRANCH 79 95
ATOM     95  O4  SGN B   6     -13.053  49.668  14.5530  0.00  0.00     0.000 O
BRANCH 95 99
ATOM     96  C1  SGN B   6     -11.687  51.033  18.2250  0.00  0.00     0.000 C
ATOM     97  C2  SGN B   6     -13.157  50.634  18.1670  0.00  0.00     0.000 C
ATOM     98  C3  SGN B   6     -13.304  49.682  16.9790  0.00  0.00     0.000 C
ATOM     99  C4  SGN B   6     -12.964  50.496  15.6980  0.00  0.00     0.000 C
ATOM    100  C5  SGN B   6     -11.494  50.980  15.8560  0.00  0.00     0.000 C
ATOM    101  O5  SGN B   6     -11.320  51.734  17.0520  0.00  0.00     0.000 O
BRANCH 97 104
ATOM    102   N  SGN B   6     -14.404  50.871  18.8990  0.00  0.00     0.000 N
ATOM    104  HD  SGN B   6     -14.382  51.655  19.2660  0.00  0.00     0.000 HD
ATOM    104 @NS  SGN B   6     -14.307  51.047  20.5460  0.00  0.00     0.000 S
ATOM    105   O  SGN B   6     -12.912  50.954  20.9160  0.00  0.00     0.000 OA
ATOM    106   O  SGN B   6     -14.871  52.339  20.8610  0.00  0.00     0.000 OA
ATOM    107   O  SGN B   6     -15.074  49.958  21.1100  0.00  0.00     0.000 OA
ENDBRANCH 97 104
BRANCH 100 108
ATOM    108   C  SGN B   6     -10.950  51.850  14.7290  0.00  0.00     0.000 C
ATOM    109   O  SGN B   6     -11.836  52.915  14.4930  0.00  0.00     0.000 O
ATOM    110  @S  SGN B   6     -11.654  54.040  13.4110  0.00  0.00     0.000 S
ATOM    111   O  SGN B   6     -11.140  53.380  12.2350  0.00  0.00     0.000 OA
ATOM    112   O  SGN B   6     -12.973  54.611  13.1850  0.00  0.00     0.000 OA
ATOM    113   O  SGN B   6     -10.716  54.982  13.9790  0.00  0.00     0.000 OA
ENDBRANCH 100 108
ENDBRANCH 95 99
ENDBRANCH 79 95
ENDBRANCH 78 82
ENDBRANCH 58 78
ENDBRANCH 57 61
ENDBRANCH 41 57
ENDBRANCH 40 44
ENDBRANCH 20 40
ENDBRANCH 19 23
ENDBRANCH 1 19
TORSDOF 22
ENDMDL
MODEL 44
REMARK VINA RESULT:      -0.1      5.492     12.236
ROOT
ATOM      1  C1  IDS B   1     -17.777  58.276  14.0180  0.00  0.00     0.000 C
ATOM      2  C2  IDS B   1     -16.505  58.482  14.7980  0.00  0.00     0.000 C
ATOM      3  C3  IDS B   1     -15.187  58.215  14.0330  0.00  0.00     0.000 C
ATOM      4  C4  IDS B   1     -15.296  58.453  12.4810  0.00  0.00     0.000 C
ATOM      5  C5  IDS B   1     -16.728  58.218  11.9400  0.00  0.00     0.000 C
ATOM      6  O5  IDS B   1     -17.663  58.883  12.7470  0.00  0.00     0.000 O
ATOM      7   O  IDS B   1     -14.798  56.875  14.3180  0.00  0.00     0.000 O
ATOM      9  HD  IDS B   1     -14.449  57.123  13.5660  0.00  0.00     0.000 HD
ATOM      9   O  IDS B   1     -14.952  59.797  12.2280  0.00  0.00     0.000 O
ATOM     11  HD  IDS B   1     -14.603  60.046  11.4760  0.00  0.00     0.000 HD
ENDROOT
BRANCH 2 11
ATOM     11   O  IDS B   1     -16.440  59.792  15.2450  0.00  0.00     0.000 O
ATOM     12  @S  IDS B   1     -16.625  60.222  16.7140  0.00  0.00     0.000 S
ATOM     13   O  IDS B   1     -17.458  59.179  17.2780  0.00  0.00     0.000 OA
ATOM     14   O  IDS B   1     -15.300  60.259  17.3070  0.00  0.00     0.000 OA
ATOM     15   O  IDS B   1     -17.258  61.525  16.6670  0.00  0.00     0.000 OA
ENDBRANCH 2 11
BRANCH 5 16
ATOM     16 @CA  IDS B   1     -16.969  58.569  10.4750  0.00  0.00     0.000 C
ATOM     17   O  IDS B   1     -18.103  58.732  10.0300  0.00  0.00     0.000 OA
ATOM     18   O  IDS B   1     -16.023  58.712   9.7040  0.00  0.00     0.000 OA
ENDBRANCH 5 16
BRANCH 1 19
ATOM     19  O4  SGN B   2     -17.994  56.886  13.8950  0.00  0.00     0.000 O
BRANCH 19 23
ATOM     20  C1  SGN B   2     -21.331  54.532  14.1820  0.00  0.00     0.000 C
ATOM     21  C2  SGN B   2     -21.251  55.546  13.0620  0.00  0.00     0.000 C
ATOM     22  C3  SGN B   2     -19.825  55.852  12.7740  0.00  0.00     0.000 C
ATOM     23  C4  SGN B   2     -19.308  56.486  14.0450  0.00  0.00     0.000 C
ATOM     24  C5  SGN B   2     -19.344  55.402  15.0660  0.00  0.00     0.000 C
ATOM     25  O5  SGN B   2     -20.657  55.054  15.3190  0.00  0.00     0.000 O
ATOM     26   O  SGN B   2     -19.749  56.748  11.7210  0.00  0.00     0.000 O
ATOM     28  HD  SGN B   2     -19.660  57.435  11.2020  0.00  0.00     0.000 HD
BRANCH 21 30
ATOM     28   N  SGN B   2     -21.984  54.882  12.0240  0.00  0.00     0.000 N
ATOM     30  HD  SGN B   2     -21.810  55.426  11.3730  0.00  0.00     0.000 HD
ATOM     30 @NS  SGN B   2     -23.563  55.245  11.8900  0.00  0.00     0.000 S
ATOM     31   O  SGN B   2     -23.876  56.311  12.7810  0.00  0.00     0.000 OA
ATOM     32   O  SGN B   2     -23.698  55.638  10.5480  0.00  0.00     0.000 OA
ATOM     33   O  SGN B   2     -24.269  54.069  12.2330  0.00  0.00     0.000 OA
ENDBRANCH 21 30
BRANCH 24 34
ATOM     34   C  SGN B   2     -18.730  55.740  16.3740  0.00  0.00     0.000 C
ATOM     35   O  SGN B   2     -19.744  55.773  17.3140  0.00  0.00     0.000 O
ATOM     36  @S  SGN B   2     -19.495  55.874  18.8150  0.00  0.00     0.000 S
ATOM     37   O  SGN B   2     -19.509  57.298  19.0840  0.00  0.00     0.000 OA
ATOM     38   O  SGN B   2     -20.566  55.153  19.4630  0.00  0.00     0.000 OA
ATOM     39   O  SGN B   2     -18.199  55.246  19.0300  0.00  0.00     0.000 OA
ENDBRANCH 24 34
BRANCH 20 40
ATOM     40  O4  IDS B   3     -20.780  53.316  13.7810  0.00  0.00     0.000 O
BRANCH 40 44
ATOM     41  C1  IDS B   3     -20.396  49.895  13.1070  0.00  0.00     0.000 C
ATOM     42  C2  IDS B   3     -21.632  50.647  12.6190  0.00  0.00     0.000 C
ATOM     43  C3  IDS B   3     -22.317  51.551  13.6630  0.00  0.00     0.000 C
ATOM     44  C4  IDS B   3     -21.291  52.259  14.5240  0.00  0.00     0.000 C
ATOM     45  C5  IDS B   3     -20.154  51.321  14.9570  0.00  0.00     0.000 C
ATOM     46  O5  IDS B   3     -19.548  50.758  13.8510  0.00  0.00     0.000 O
ATOM     47   O  IDS B   3     -23.131  50.760  14.5040  0.00  0.00     0.000 O
ATOM     49  HD  IDS B   3     -22.879  51.483  14.0990  0.00  0.00     0.000 HD
BRANCH 42 49
ATOM     49   O  IDS B   3     -21.261  51.465  11.5460  0.00  0.00     0.000 O
ATOM     50   O  IDS B   3     -22.554  50.180  10.0540  0.00  0.00     0.000 OA
ATOM     51   O  IDS B   3     -22.499  52.533   9.7990  0.00  0.00     0.000 OA
ATOM     52   O  IDS B   3     -20.577  51.241   9.3460  0.00  0.00     0.000 OA
ATOM     53  @S  IDS B   3     -21.756  51.350  10.1020  0.00  0.00     0.000 S
ENDBRANCH 42 49
BRANCH 45 54
ATOM     54 @CA  IDS B   3     -19.094  51.951  15.8580  0.00  0.00     0.000 C
ATOM     55   O  IDS B   3     -19.330  52.248  16.9980  0.00  0.00     0.000 OA
ATOM     56   O  IDS B   3     -17.991  52.149  15.4680  0.00  0.00     0.000 OA
ENDBRANCH 45 54
BRANCH 41 57
ATOM     57  O4  SGN B   4     -20.787  48.790  13.8530  0.00  0.00     0.000 O
BRANCH 57 61
ATOM     58  C1  SGN B   4     -17.163  46.834  13.6550  0.00  0.00     0.000 C
ATOM     59  C2  SGN B   4     -18.054  46.689  12.4330  0.00  0.00     0.000 C
ATOM     60  C3  SGN B   4     -19.152  47.748  12.4650  0.00  0.00     0.000 C
ATOM     61  C4  SGN B   4     -19.950  47.678  13.7730  0.00  0.00     0.000 C
ATOM     62  C5  SGN B   4     -18.957  47.739  14.9300  0.00  0.00     0.000 C
ATOM     63  O5  SGN B   4     -17.971  46.731  14.8160  0.00  0.00     0.000 O
ATOM     64   O  SGN B   4     -20.036  47.520  11.3870  0.00  0.00     0.000 O
ATOM     66  HD  SGN B   4     -20.862  47.363  11.5930  0.00  0.00     0.000 HD
BRANCH 59 68
ATOM     66   N  SGN B   4     -17.637  45.546  11.6460  0.00  0.00     0.000 N
ATOM     68  HD  SGN B   4     -17.662  45.770  12.4820  0.00  0.00     0.000 HD
ATOM     68 @NS  SGN B   4     -16.244  45.609  10.7840  0.00  0.00     0.000 S
ATOM     69   O  SGN B   4     -16.109  46.929  10.2420  0.00  0.00     0.000 OA
ATOM     70   O  SGN B   4     -15.188  45.315  11.7100  0.00  0.00     0.000 OA
ATOM     71   O  SGN B   4     -16.407  44.609   9.7730  0.00  0.00     0.000 OA
ENDBRANCH 59 68
BRANCH 62 72
ATOM     72   C  SGN B   4     -19.619  47.550  16.2870  0.00  0.00     0.000 C
ATOM     73   O  SGN B   4     -20.421  48.678  16.4730  0.00  0.00     0.000 O
ATOM     74  @S  SGN B   4     -21.749  48.766  17.2450  0.00  0.00     0.000 S
ATOM     75   O  SGN B   4     -21.492  48.351  18.5750  0.00  0.00     0.000 OA
ATOM     76   O  SGN B   4     -22.108  50.150  17.1690  0.00  0.00     0.000 OA
ATOM     77   O  SGN B   4     -22.642  47.875  16.5860  0.00  0.00     0.000 OA
ENDBRANCH 62 72
BRANCH 58 78
ATOM     78  O4  IDS B   5     -16.456  48.056  13.6000  0.00  0.00     0.000 O
BRANCH 78 82
ATOM     79  C1  IDS B   5     -14.323  50.780  13.7740  0.00  0.00     0.000 C
ATOM     80  C2  IDS B   5     -14.218  49.840  12.6120  0.00  0.00     0.000 C
ATOM     81  C3  IDS B   5     -14.136  48.370  13.0130  0.00  0.00     0.000 C
ATOM     82  C4  IDS B   5     -15.134  48.002  14.0920  0.00  0.00     0.000 C
ATOM     83  C5  IDS B   5     -14.990  48.998  15.1980  0.00  0.00     0.000 C
ATOM     84  O5  IDS B   5     -15.273  50.295  14.7050  0.00  0.00     0.000 O
ATOM     85   O  IDS B   5     -12.847  48.136  13.5270  0.00  0.00     0.000 O
ATOM     87  HD  IDS B   5     -13.612  47.966  13.8950  0.00  0.00     0.000 HD
BRANCH 80 87
ATOM     87   O  IDS B   5     -15.345  49.982  11.8410  0.00  0.00     0.000 O
ATOM     88  @S  IDS B   5     -15.427  50.562  10.4270  0.00  0.00     0.000 S
ATOM     89   O  IDS B   5     -14.474  49.831   9.6730  0.00  0.00     0.000 OA
ATOM     90   O  IDS B   5     -16.772  50.365  10.0150  0.00  0.00     0.000 OA
ATOM     91   O  IDS B   5     -15.103  51.940  10.5490  0.00  0.00     0.000 OA
ENDBRANCH 80 87
BRANCH 83 92
ATOM     92 @CA  IDS B   5     -15.799  48.654  16.4430  0.00  0.00     0.000 C
ATOM     93   O  IDS B   5     -16.612  49.454  16.9130  0.00  0.00     0.000 OA
ATOM     94   O  IDS B   5     -15.649  47.565  17.0090  0.00  0.00     0.000 OA
ENDBRANCH 83 92
BRANCH 79 95
ATOM     95  O4  SGN B   6     -13.069  50.954  14.3440  0.00  0.00     0.000 O
BRANCH 95 99
ATOM     96  C1  SGN B   6     -11.409  53.474  17.1910  0.00  0.00     0.000 C
ATOM     97  C2  SGN B   6     -12.687  52.755  17.6030  0.00  0.00     0.000 C
ATOM     98  C3  SGN B   6     -12.806  51.525  16.7010  0.00  0.00     0.000 C
ATOM     99  C4  SGN B   6     -12.980  52.043  15.2450  0.00  0.00     0.000 C
ATOM    100  C5  SGN B   6     -11.704  52.868  14.9110  0.00  0.00     0.000 C
ATOM    101  O5  SGN B   6     -11.504  53.919  15.8520  0.00  0.00     0.000 O
BRANCH 97 104
ATOM    102   N  SGN B   6     -12.437  53.658  18.7300  0.00  0.00     0.000 N
ATOM    104  HD  SGN B   6     -12.167  53.202  19.4140  0.00  0.00     0.000 HD
ATOM    104 @NS  SGN B   6     -13.388  53.487  20.0780  0.00  0.00     0.000 S
ATOM    105   O  SGN B   6     -14.294  52.385  19.8390  0.00  0.00     0.000 OA
ATOM    106   O  SGN B   6     -12.497  53.231  21.1860  0.00  0.00     0.000 OA
ATOM    107   O  SGN B   6     -14.105  54.734  20.2230  0.00  0.00     0.000 OA
ENDBRANCH 97 104
BRANCH 100 108
ATOM    108   C  SGN B   6     -11.671  53.524  13.5360  0.00  0.00     0.000 C
ATOM    109   O  SGN B   6     -12.902  54.158  13.2910  0.00  0.00     0.000 O
ATOM    110  @S  SGN B   6     -13.287  54.946  11.9870  0.00  0.00     0.000 S
ATOM    111   O  SGN B   6     -12.744  54.184  10.8880  0.00  0.00     0.000 OA
ATOM    112   O  SGN B   6     -14.739  54.999  11.9530  0.00  0.00     0.000 OA
ATOM    113   O  SGN B   6     -12.673  56.248  12.1210  0.00  0.00     0.000 OA
ENDBRANCH 100 108
ENDBRANCH 95 99
ENDBRANCH 79 95
ENDBRANCH 78 82
ENDBRANCH 58 78
ENDBRANCH 57 61
ENDBRANCH 41 57
ENDBRANCH 40 44
ENDBRANCH 20 40
ENDBRANCH 19 23
ENDBRANCH 1 19
TORSDOF 22
ENDMDL
MODEL 45
REMARK VINA RESULT:      -0.1      3.585      5.712
ROOT
ATOM      1  C1  IDS B   1     -17.303  50.338  13.2390  0.00  0.00     0.000 C
ATOM      2  C2  IDS B   1     -15.868  50.382  12.7850  0.00  0.00     0.000 C
ATOM      3  C3  IDS B   1     -15.291  49.060  12.2230  0.00  0.00     0.000 C
ATOM      4  C4  IDS B   1     -16.375  48.123  11.5700  0.00  0.00     0.000 C
ATOM      5  C5  IDS B   1     -17.780  48.313  12.1920  0.00  0.00     0.000 C
ATOM      6  O5  IDS B   1     -18.092  49.678  12.2690  0.00  0.00     0.000 O
ATOM      7   O  IDS B   1     -14.624  48.401  13.2950  0.00  0.00     0.000 O
ATOM      9  HD  IDS B   1     -14.859  47.819  12.6990  0.00  0.00     0.000 HD
ATOM      9   O  IDS B   1     -16.457  48.451  10.2020  0.00  0.00     0.000 O
ATOM     11  HD  IDS B   1     -16.692  47.869   9.6050  0.00  0.00     0.000 HD
ENDROOT
BRANCH 2 11
ATOM     11   O  IDS B   1     -15.725  51.329  11.7830  0.00  0.00     0.000 O
ATOM     12  @S  IDS B   1     -14.827  52.577  11.8860  0.00  0.00     0.000 S
ATOM     13   O  IDS B   1     -14.759  52.839  13.3090  0.00  0.00     0.000 OA
ATOM     14   O  IDS B   1     -13.539  52.212  11.3240  0.00  0.00     0.000 OA
ATOM     15   O  IDS B   1     -15.500  53.612  11.1250  0.00  0.00     0.000 OA
ENDBRANCH 2 11
BRANCH 5 16
ATOM     16 @CA  IDS B   1     -18.928  47.560  11.5260  0.00  0.00     0.000 C
ATOM     17   O  IDS B   1     -18.726  46.724  10.6480  0.00  0.00     0.000 OA
ATOM     18   O  IDS B   1     -20.090  47.765  11.8680  0.00  0.00     0.000 OA
ENDBRANCH 5 16
BRANCH 1 19
ATOM     19  O4  SGN B   2     -17.350  49.655  14.4750  0.00  0.00     0.000 O
BRANCH 19 23
ATOM     20  C1  SGN B   2     -20.340  51.791  16.2790  0.00  0.00     0.000 C
ATOM     21  C2  SGN B   2     -18.911  52.262  16.4400  0.00  0.00     0.000 C
ATOM     22  C3  SGN B   2     -18.095  51.761  15.3030  0.00  0.00     0.000 C
ATOM     23  C4  SGN B   2     -18.132  50.257  15.4420  0.00  0.00     0.000 C
ATOM     24  C5  SGN B   2     -19.550  49.876  15.1880  0.00  0.00     0.000 C
ATOM     25  O5  SGN B   2     -20.347  50.372  16.2010  0.00  0.00     0.000 O
ATOM     26   O  SGN B   2     -16.797  52.226  15.4270  0.00  0.00     0.000 O
ATOM     28  HD  SGN B   2     -15.948  52.336  15.5600  0.00  0.00     0.000 HD
BRANCH 21 30
ATOM     28   N  SGN B   2     -19.605  53.494  16.6780  0.00  0.00     0.000 N
ATOM     30  HD  SGN B   2     -19.105  54.019  16.2040  0.00  0.00     0.000 HD
ATOM     30 @NS  SGN B   2     -19.193  54.325  18.0130  0.00  0.00     0.000 S
ATOM     31   O  SGN B   2     -18.067  53.702  18.6240  0.00  0.00     0.000 OA
ATOM     32   O  SGN B   2     -18.872  55.602  17.5210  0.00  0.00     0.000 OA
ATOM     33   O  SGN B   2     -20.321  54.290  18.8650  0.00  0.00     0.000 OA
ENDBRANCH 21 30
BRANCH 24 34
ATOM     34   C  SGN B   2     -19.812  48.417  15.1120  0.00  0.00     0.000 C
ATOM     35   O  SGN B   2     -19.725  47.910  16.3970  0.00  0.00     0.000 O
ATOM     36  @S  SGN B   2     -20.139  46.491  16.7700  0.00  0.00     0.000 S
ATOM     37   O  SGN B   2     -18.923  45.715  16.6260  0.00  0.00     0.000 OA
ATOM     38   O  SGN B   2     -20.633  46.546  18.1260  0.00  0.00     0.000 OA
ATOM     39   O  SGN B   2     -21.182  46.135  15.8180  0.00  0.00     0.000 OA
ENDBRANCH 24 34
BRANCH 20 40
ATOM     40  O4  IDS B   3     -20.919  52.363  15.1470  0.00  0.00     0.000 O
BRANCH 40 44
ATOM     41  C1  IDS B   3     -23.809  54.003  14.0230  0.00  0.00     0.000 C
ATOM     42  C2  IDS B   3     -23.603  53.727  15.5110  0.00  0.00     0.000 C
ATOM     43  C3  IDS B   3     -23.148  52.298  15.8670  0.00  0.00     0.000 C
ATOM     44  C4  IDS B   3     -22.145  51.780  14.8550  0.00  0.00     0.000 C
ATOM     45  C5  IDS B   3     -22.556  52.112  13.4120  0.00  0.00     0.000 C
ATOM     46  O5  IDS B   3     -22.732  53.474  13.2640  0.00  0.00     0.000 O
ATOM     47   O  IDS B   3     -24.267  51.436  15.8630  0.00  0.00     0.000 O
ATOM     49  HD  IDS B   3     -23.476  51.704  16.0920  0.00  0.00     0.000 HD
BRANCH 42 49
ATOM     49   O  IDS B   3     -22.626  54.603  15.9950  0.00  0.00     0.000 O
ATOM     50   O  IDS B   3     -24.102  56.429  15.8120  0.00  0.00     0.000 OA
ATOM     51   O  IDS B   3     -22.645  56.308  17.6740  0.00  0.00     0.000 OA
ATOM     52   O  IDS B   3     -21.785  56.705  15.5120  0.00  0.00     0.000 OA
ATOM     53  @S  IDS B   3     -22.802  56.099  16.2690  0.00  0.00     0.000 S
ENDBRANCH 42 49
BRANCH 45 54
ATOM     54 @CA  IDS B   3     -21.614  51.594  12.3280  0.00  0.00     0.000 C
ATOM     55   O  IDS B   3     -22.007  50.898  11.4310  0.00  0.00     0.000 OA
ATOM     56   O  IDS B   3     -20.463  51.881  12.3230  0.00  0.00     0.000 OA
ENDBRANCH 45 54
BRANCH 41 57
ATOM     57  O4  SGN B   4     -25.030  53.479  13.6160  0.00  0.00     0.000 O
BRANCH 57 61
ATOM     58  C1  SGN B   4     -27.498  53.727  10.3230  0.00  0.00     0.000 C
ATOM     59  C2  SGN B   4     -26.586  52.513  10.3700  0.00  0.00     0.000 C
ATOM     60  C3  SGN B   4     -26.032  52.336  11.7800  0.00  0.00     0.000 C
ATOM     61  C4  SGN B   4     -25.323  53.608  12.2600  0.00  0.00     0.000 C
ATOM     62  C5  SGN B   4     -26.290  54.776  12.0860  0.00  0.00     0.000 C
ATOM     63  O5  SGN B   4     -26.762  54.860  10.7540  0.00  0.00     0.000 O
ATOM     64   O  SGN B   4     -25.097  51.276  11.7720  0.00  0.00     0.000 O
ATOM     66  HD  SGN B   4     -24.288  51.476  12.0090  0.00  0.00     0.000 HD
BRANCH 59 68
ATOM     66   N  SGN B   4     -26.462  51.937   9.0460  0.00  0.00     0.000 N
ATOM     68  HD  SGN B   4     -26.563  52.724   9.3930  0.00  0.00     0.000 HD
ATOM     68 @NS  SGN B   4     -27.722  51.124   8.3840  0.00  0.00     0.000 S
ATOM     69   O  SGN B   4     -28.372  50.379   9.4210  0.00  0.00     0.000 OA
ATOM     70   O  SGN B   4     -28.595  52.120   7.8330  0.00  0.00     0.000 OA
ATOM     71   O  SGN B   4     -27.121  50.284   7.3920  0.00  0.00     0.000 OA
ENDBRANCH 59 68
BRANCH 62 72
ATOM     72   C  SGN B   4     -25.658  56.120  12.4110  0.00  0.00     0.000 C
ATOM     73   O  SGN B   4     -26.139  57.004  11.4430  0.00  0.00     0.000 O
ATOM     74  @S  SGN B   4     -26.404  58.512  11.6010  0.00  0.00     0.000 S
ATOM     75   O  SGN B   4     -25.184  59.117  11.9890  0.00  0.00     0.000 OA
ATOM     76   O  SGN B   4     -26.829  58.932  10.3000  0.00  0.00     0.000 OA
ATOM     77   O  SGN B   4     -27.389  58.628  12.6230  0.00  0.00     0.000 OA
ENDBRANCH 62 72
BRANCH 58 78
ATOM     78  O4  IDS B   5     -28.648  53.503  11.1130  0.00  0.00     0.000 O
BRANCH 78 82
ATOM     79  C1  IDS B   5     -31.797  52.910  12.4290  0.00  0.00     0.000 C
ATOM     80  C2  IDS B   5     -31.329  52.103  11.2570  0.00  0.00     0.000 C
ATOM     81  C3  IDS B   5     -30.772  52.945  10.1120  0.00  0.00     0.000 C
ATOM     82  C4  IDS B   5     -29.843  54.042  10.5900  0.00  0.00     0.000 C
ATOM     83  C5  IDS B   5     -30.550  54.788  11.6770  0.00  0.00     0.000 C
ATOM     84  O5  IDS B   5     -30.840  53.906  12.7450  0.00  0.00     0.000 O
ATOM     85   O  IDS B   5     -31.858  53.559   9.4620  0.00  0.00     0.000 O
ATOM     87  HD  IDS B   5     -31.147  53.929   9.7880  0.00  0.00     0.000 HD
BRANCH 80 87
ATOM     87   O  IDS B   5     -30.315  51.280  11.6790  0.00  0.00     0.000 O
ATOM     88  @S  IDS B   5     -30.441  49.829  12.1490  0.00  0.00     0.000 S
ATOM     89   O  IDS B   5     -31.137  49.163  11.1080  0.00  0.00     0.000 OA
ATOM     90   O  IDS B   5     -29.108  49.377  12.3430  0.00  0.00     0.000 OA
ATOM     91   O  IDS B   5     -31.171  49.874  13.3680  0.00  0.00     0.000 OA
ENDBRANCH 80 87
BRANCH 83 92
ATOM     92 @CA  IDS B   5     -29.818  56.044  12.1350  0.00  0.00     0.000 C
ATOM     93   O  IDS B   5     -29.333  56.118  13.2670  0.00  0.00     0.000 OA
ATOM     94   O  IDS B   5     -29.702  57.016  11.3790  0.00  0.00     0.000 OA
ENDBRANCH 83 92
BRANCH 79 95
ATOM     95  O4  SGN B   6     -33.046  53.450  12.1520  0.00  0.00     0.000 O
BRANCH 95 99
ATOM     96  C1  SGN B   6     -36.192  54.991  14.3740  0.00  0.00     0.000 C
ATOM     97  C2  SGN B   6     -34.815  55.570  14.6780  0.00  0.00     0.000 C
ATOM     98  C3  SGN B   6     -33.951  55.311  13.4440  0.00  0.00     0.000 C
ATOM     99  C4  SGN B   6     -33.816  53.768  13.2970  0.00  0.00     0.000 C
ATOM    100  C5  SGN B   6     -35.256  53.212  13.1060  0.00  0.00     0.000 C
ATOM    101  O5  SGN B   6     -36.107  53.592  14.1830  0.00  0.00     0.000 O
BRANCH 97 104
ATOM    102   N  SGN B   6     -35.537  56.730  15.2100  0.00  0.00     0.000 N
ATOM    104  HD  SGN B   6     -35.012  57.419  15.2210  0.00  0.00     0.000 HD
ATOM    104 @NS  SGN B   6     -35.000  57.379  16.6390  0.00  0.00     0.000 S
ATOM    105   O  SGN B   6     -33.838  56.625  17.0550  0.00  0.00     0.000 OA
ATOM    106   O  SGN B   6     -34.686  58.764  16.3750  0.00  0.00     0.000 OA
ATOM    107   O  SGN B   6     -36.088  57.229  17.5790  0.00  0.00     0.000 OA
ENDBRANCH 97 104
BRANCH 100 108
ATOM    108   C  SGN B   6     -35.379  51.697  12.9890  0.00  0.00     0.000 C
ATOM    109   O  SGN B   6     -35.619  51.351  11.6470  0.00  0.00     0.000 O
ATOM    110  @S  SGN B   6     -35.814  49.893  11.0950  0.00  0.00     0.000 S
ATOM    111   O  SGN B   6     -36.618  49.202  12.0750  0.00  0.00     0.000 OA
ATOM    112   O  SGN B   6     -36.500  50.025   9.8200  0.00  0.00     0.000 OA
ATOM    113   O  SGN B   6     -34.485  49.339  10.9720  0.00  0.00     0.000 OA
ENDBRANCH 100 108
ENDBRANCH 95 99
ENDBRANCH 79 95
ENDBRANCH 78 82
ENDBRANCH 58 78
ENDBRANCH 57 61
ENDBRANCH 41 57
ENDBRANCH 40 44
ENDBRANCH 20 40
ENDBRANCH 19 23
ENDBRANCH 1 19
TORSDOF 22
ENDMDL
MODEL 46
REMARK VINA RESULT:      -0.0      4.344     11.424
ROOT
ATOM      1  C1  IDS B   1     -23.257  54.480  10.4430  0.00  0.00     0.000 C
ATOM      2  C2  IDS B   1     -24.082  53.281  10.8310  0.00  0.00     0.000 C
ATOM      3  C3  IDS B   1     -24.993  53.454  12.0690  0.00  0.00     0.000 C
ATOM      4  C4  IDS B   1     -25.462  54.938  12.3080  0.00  0.00     0.000 C
ATOM      5  C5  IDS B   1     -24.449  55.978  11.7690  0.00  0.00     0.000 C
ATOM      6  O5  IDS B   1     -24.062  55.642  10.4640  0.00  0.00     0.000 O
ATOM      7   O  IDS B   1     -24.276  52.958  13.1950  0.00  0.00     0.000 O
ATOM      9  HD  IDS B   1     -24.870  53.529  13.4600  0.00  0.00     0.000 HD
ATOM      9   O  IDS B   1     -26.679  55.120  11.6190  0.00  0.00     0.000 O
ATOM     11  HD  IDS B   1     -27.273  55.691  11.8840  0.00  0.00     0.000 HD
ENDROOT
BRANCH 2 11
ATOM     11   O  IDS B   1     -24.912  52.926   9.7800  0.00  0.00     0.000 O
ATOM     12  @S  IDS B   1     -25.947  51.786   9.8330  0.00  0.00     0.000 S
ATOM     13   O  IDS B   1     -25.412  50.879  10.8290  0.00  0.00     0.000 OA
ATOM     14   O  IDS B   1     -27.205  52.384  10.2430  0.00  0.00     0.000 OA
ATOM     15   O  IDS B   1     -25.997  51.233   8.4940  0.00  0.00     0.000 OA
ENDBRANCH 2 11
BRANCH 5 16
ATOM     16 @CA  IDS B   1     -24.882  57.440  11.8180  0.00  0.00     0.000 C
ATOM     17   O  IDS B   1     -25.972  57.775  12.2750  0.00  0.00     0.000 OA
ATOM     18   O  IDS B   1     -24.135  58.325  11.4070  0.00  0.00     0.000 OA
ENDBRANCH 5 16
BRANCH 1 19
ATOM     19  O4  SGN B   2     -22.189  54.592  11.3600  0.00  0.00     0.000 O
BRANCH 19 23
ATOM     20  C1  SGN B   2     -18.277  55.689  10.8560  0.00  0.00     0.000 C
ATOM     21  C2  SGN B   2     -19.302  56.764  11.1440  0.00  0.00     0.000 C
ATOM     22  C3  SGN B   2     -20.465  56.162  11.8480  0.00  0.00     0.000 C
ATOM     23  C4  SGN B   2     -21.047  55.184  10.8540  0.00  0.00     0.000 C
ATOM     24  C5  SGN B   2     -20.012  54.125  10.6950  0.00  0.00     0.000 C
ATOM     25  O5  SGN B   2     -18.893  54.663  10.0900  0.00  0.00     0.000 O
ATOM     26   O  SGN B   2     -21.384  57.152  12.1480  0.00  0.00     0.000 O
ATOM     28  HD  SGN B   2     -22.059  57.693  12.1900  0.00  0.00     0.000 HD
BRANCH 21 30
ATOM     28   N  SGN B   2     -18.076  57.362  10.7040  0.00  0.00     0.000 N
ATOM     30  HD  SGN B   2     -17.576  57.148  11.3780  0.00  0.00     0.000 HD
ATOM     30 @NS  SGN B   2     -17.855  58.933  11.0530  0.00  0.00     0.000 S
ATOM     31   O  SGN B   2     -18.913  59.378  11.8970  0.00  0.00     0.000 OA
ATOM     32   O  SGN B   2     -16.620  58.953  11.7220  0.00  0.00     0.000 OA
ATOM     33   O  SGN B   2     -17.866  59.619   9.8170  0.00  0.00     0.000 OA
ENDBRANCH 21 30
BRANCH 24 34
ATOM     34   C  SGN B   2     -20.420  52.955   9.8780  0.00  0.00     0.000 C
ATOM     35   O  SGN B   2     -20.644  51.899  10.7440  0.00  0.00     0.000 O
ATOM     36  @S  SGN B   2     -21.283  50.583  10.3160  0.00  0.00     0.000 S
ATOM     37   O  SGN B   2     -20.159  49.744   9.9480  0.00  0.00     0.000 OA
ATOM     38   O  SGN B   2     -22.023  50.091  11.4550  0.00  0.00     0.000 OA
ATOM     39   O  SGN B   2     -22.153  50.926   9.2000  0.00  0.00     0.000 OA
ENDBRANCH 24 34
BRANCH 20 40
ATOM     40  O4  IDS B   3     -17.750  55.185  12.0450  0.00  0.00     0.000 O
BRANCH 40 44
ATOM     41  C1  IDS B   3     -15.428  54.330  14.5310  0.00  0.00     0.000 C
ATOM     42  C2  IDS B   3     -15.368  55.697  13.8510  0.00  0.00     0.000 C
ATOM     43  C3  IDS B   3     -15.475  55.681  12.3140  0.00  0.00     0.000 C
ATOM     44  C4  IDS B   3     -16.484  54.649  11.8510  0.00  0.00     0.000 C
ATOM     45  C5  IDS B   3     -16.349  53.325  12.6180  0.00  0.00     0.000 C
ATOM     46  O5  IDS B   3     -16.471  53.543  13.9770  0.00  0.00     0.000 O
ATOM     47   O  IDS B   3     -14.219  55.352  11.7600  0.00  0.00     0.000 O
ATOM     49  HD  IDS B   3     -15.008  55.708  11.7740  0.00  0.00     0.000 HD
BRANCH 42 49
ATOM     49   O  IDS B   3     -16.424  56.479  14.3300  0.00  0.00     0.000 O
ATOM     50   O  IDS B   3     -15.099  57.270  16.1090  0.00  0.00     0.000 OA
ATOM     51   O  IDS B   3     -16.584  58.762  15.0270  0.00  0.00     0.000 OA
ATOM     52   O  IDS B   3     -17.423  56.999  16.3530  0.00  0.00     0.000 OA
ATOM     53  @S  IDS B   3     -16.377  57.437  15.5230  0.00  0.00     0.000 S
ENDBRANCH 42 49
BRANCH 45 54
ATOM     54 @CA  IDS B   3     -17.309  52.218  12.1870  0.00  0.00     0.000 C
ATOM     55   O  IDS B   3     -17.194  51.661  11.1290  0.00  0.00     0.000 OA
ATOM     56   O  IDS B   3     -18.189  51.855  12.8950  0.00  0.00     0.000 OA
ENDBRANCH 45 54
BRANCH 41 57
ATOM     57  O4  SGN B   4     -14.194  53.700  14.4190  0.00  0.00     0.000 O
BRANCH 57 61
ATOM     58  C1  SGN B   4     -15.045  50.729  17.1470  0.00  0.00     0.000 C
ATOM     59  C2  SGN B   4     -14.558  52.042  17.7380  0.00  0.00     0.000 C
ATOM     60  C3  SGN B   4     -14.658  53.148  16.6910  0.00  0.00     0.000 C
ATOM     61  C4  SGN B   4     -13.896  52.771  15.4150  0.00  0.00     0.000 C
ATOM     62  C5  SGN B   4     -14.394  51.402  14.9590  0.00  0.00     0.000 C
ATOM     63  O5  SGN B   4     -14.275  50.442  15.9920  0.00  0.00     0.000 O
ATOM     64   O  SGN B   4     -14.091  54.328  17.2210  0.00  0.00     0.000 O
ATOM     66  HD  SGN B   4     -13.415  54.657  16.7910  0.00  0.00     0.000 HD
BRANCH 59 68
ATOM     66   N  SGN B   4     -14.463  51.133  18.8620  0.00  0.00     0.000 N
ATOM     68  HD  SGN B   4     -14.907  51.187  18.1210  0.00  0.00     0.000 HD
ATOM     68 @NS  SGN B   4     -15.145  51.533  20.2990  0.00  0.00     0.000 S
ATOM     69   O  SGN B   4     -14.963  52.939  20.5080  0.00  0.00     0.000 OA
ATOM     70   O  SGN B   4     -16.536  51.198  20.1880  0.00  0.00     0.000 OA
ATOM     71   O  SGN B   4     -14.443  50.736  21.2590  0.00  0.00     0.000 OA
ENDBRANCH 59 68
BRANCH 62 72
ATOM     72   C  SGN B   4     -13.621  50.859  13.7670  0.00  0.00     0.000 C
ATOM     73   O  SGN B   4     -13.167  51.982  13.0720  0.00  0.00     0.000 O
ATOM     74  @S  SGN B   4     -11.875  52.114  12.2470  0.00  0.00     0.000 S
ATOM     75   O  SGN B   4     -11.916  51.124  11.2360  0.00  0.00     0.000 OA
ATOM     76   O  SGN B   4     -11.934  53.440  11.7110  0.00  0.00     0.000 OA
ATOM     77   O  SGN B   4     -10.807  51.880  13.1600  0.00  0.00     0.000 OA
ENDBRANCH 62 72
BRANCH 58 78
ATOM     78  O4  IDS B   5     -16.427  50.804  16.8660  0.00  0.00     0.000 O
BRANCH 78 82
ATOM     79  C1  IDS B   5     -19.751  50.273  16.0490  0.00  0.00     0.000 C
ATOM     80  C2  IDS B   5     -19.412  50.893  17.3700  0.00  0.00     0.000 C
ATOM     81  C3  IDS B   5     -18.351  50.127  18.1560  0.00  0.00     0.000 C
ATOM     82  C4  IDS B   5     -17.184  49.692  17.2940  0.00  0.00     0.000 C
ATOM     83  C5  IDS B   5     -17.745  49.001  16.0920  0.00  0.00     0.000 C
ATOM     84  O5  IDS B   5     -18.566  49.899  15.3700  0.00  0.00     0.000 O
ATOM     85   O  IDS B   5     -18.955  48.967  18.6740  0.00  0.00     0.000 O
ATOM     87  HD  IDS B   5     -18.237  49.033  18.1940  0.00  0.00     0.000 HD
BRANCH 80 87
ATOM     87   O  IDS B   5     -18.908  52.149  17.1380  0.00  0.00     0.000 O
ATOM     88  @S  IDS B   5     -19.644  53.482  17.3030  0.00  0.00     0.000 S
ATOM     89   O  IDS B   5     -20.159  53.456  18.6240  0.00  0.00     0.000 OA
ATOM     90   O  IDS B   5     -18.664  54.485  17.0780  0.00  0.00     0.000 OA
ATOM     91   O  IDS B   5     -20.659  53.495  16.3090  0.00  0.00     0.000 OA
ENDBRANCH 80 87
BRANCH 83 92
ATOM     92 @CA  IDS B   5     -16.689  48.338  15.2170  0.00  0.00     0.000 C
ATOM     93   O  IDS B   5     -16.629  48.572  14.0070  0.00  0.00     0.000 OA
ATOM     94   O  IDS B   5     -15.873  47.547  15.7050  0.00  0.00     0.000 OA
ENDBRANCH 83 92
BRANCH 79 95
ATOM     95  O4  SGN B   6     -20.605  49.196  16.2490  0.00  0.00     0.000 O
BRANCH 95 99
ATOM     96  C1  SGN B   6     -23.807  47.502  14.2260  0.00  0.00     0.000 C
ATOM     97  C2  SGN B   6     -22.451  47.389  13.5400  0.00  0.00     0.000 C
ATOM     98  C3  SGN B   6     -21.394  47.546  14.6340  0.00  0.00     0.000 C
ATOM     99  C4  SGN B   6     -21.539  48.986  15.2050  0.00  0.00     0.000 C
ATOM    100  C5  SGN B   6     -22.978  49.090  15.7880  0.00  0.00     0.000 C
ATOM    101  O5  SGN B   6     -23.961  48.784  14.8040  0.00  0.00     0.000 O
BRANCH 97 104
ATOM    102   N  SGN B   6     -23.312  47.128  12.3830  0.00  0.00     0.000 N
ATOM    104  HD  SGN B   6     -23.515  46.287  12.3560  0.00  0.00     0.000 HD
ATOM    104 @NS  SGN B   6     -22.718  46.137  11.1920  0.00  0.00     0.000 S
ATOM    105   O  SGN B   6     -21.404  45.693  11.6040  0.00  0.00     0.000 OA
ATOM    106   O  SGN B   6     -23.649  45.040  11.0600  0.00  0.00     0.000 OA
ATOM    107   O  SGN B   6     -22.647  46.948   9.9960  0.00  0.00     0.000 OA
ENDBRANCH 97 104
BRANCH 100 108
ATOM    108   C  SGN B   6     -23.370  50.445  16.3660  0.00  0.00     0.000 C
ATOM    109   O  SGN B   6     -24.631  50.818  15.8670  0.00  0.00     0.000 O
ATOM    110  @S  SGN B   6     -25.398  52.146  16.2080  0.00  0.00     0.000 S
ATOM    111   O  SGN B   6     -24.399  53.187  16.2270  0.00  0.00     0.000 OA
ATOM    112   O  SGN B   6     -26.372  52.342  15.1450  0.00  0.00     0.000 OA
ATOM    113   O  SGN B   6     -26.003  51.928  17.5020  0.00  0.00     0.000 OA
ENDBRANCH 100 108
ENDBRANCH 95 99
ENDBRANCH 79 95
ENDBRANCH 78 82
ENDBRANCH 58 78
ENDBRANCH 57 61
ENDBRANCH 41 57
ENDBRANCH 40 44
ENDBRANCH 20 40
ENDBRANCH 19 23
ENDBRANCH 1 19
TORSDOF 22
ENDMDL
MODEL 47
REMARK VINA RESULT:       0.0      5.603     13.858
ROOT
ATOM      1  C1  IDS B   1     -22.485  52.775  10.2730  0.00  0.00     0.000 C
ATOM      2  C2  IDS B   1     -23.660  53.484  10.8950  0.00  0.00     0.000 C
ATOM      3  C3  IDS B   1     -23.322  54.559  11.9560  0.00  0.00     0.000 C
ATOM      4  C4  IDS B   1     -21.917  55.237  11.7440  0.00  0.00     0.000 C
ATOM      5  C5  IDS B   1     -20.904  54.303  11.0380  0.00  0.00     0.000 C
ATOM      6  O5  IDS B   1     -21.495  53.716   9.9110  0.00  0.00     0.000 O
ATOM      7   O  IDS B   1     -23.401  53.932  13.2320  0.00  0.00     0.000 O
ATOM      9  HD  IDS B   1     -22.880  54.622  13.2800  0.00  0.00     0.000 HD
ATOM      9   O  IDS B   1     -22.107  56.370  10.9280  0.00  0.00     0.000 O
ATOM     11  HD  IDS B   1     -21.586  57.061  10.9760  0.00  0.00     0.000 HD
ENDROOT
BRANCH 2 11
ATOM     11   O  IDS B   1     -24.394  54.123   9.9080  0.00  0.00     0.000 O
ATOM     12  @S  IDS B   1     -25.619  55.019  10.1760  0.00  0.00     0.000 S
ATOM     13   O  IDS B   1     -26.147  54.518  11.4280  0.00  0.00     0.000 OA
ATOM     14   O  IDS B   1     -25.124  56.380  10.2840  0.00  0.00     0.000 OA
ATOM     15   O  IDS B   1     -26.502  54.830   9.0420  0.00  0.00     0.000 OA
ENDBRANCH 2 11
BRANCH 5 16
ATOM     16 @CA  IDS B   1     -19.562  54.920  10.6540  0.00  0.00     0.000 C
ATOM     17   O  IDS B   1     -18.829  55.441  11.4910  0.00  0.00     0.000 OA
ATOM     18   O  IDS B   1     -19.176  54.895   9.4880  0.00  0.00     0.000 OA
ENDBRANCH 5 16
BRANCH 1 19
ATOM     19  O4  SGN B   2     -21.982  51.853  11.2180  0.00  0.00     0.000 O
BRANCH 19 23
ATOM     20  C1  SGN B   2     -19.927  48.332  10.8510  0.00  0.00     0.000 C
ATOM     21  C2  SGN B   2     -19.445  49.538  10.0760  0.00  0.00     0.000 C
ATOM     22  C3  SGN B   2     -19.907  50.778  10.7540  0.00  0.00     0.000 C
ATOM     23  C4  SGN B   2     -21.415  50.715  10.6750  0.00  0.00     0.000 C
ATOM     24  C5  SGN B   2     -21.803  49.557  11.5280  0.00  0.00     0.000 C
ATOM     25  O5  SGN B   2     -21.342  48.389  10.9530  0.00  0.00     0.000 O
ATOM     26   O  SGN B   2     -19.432  51.883  10.0690  0.00  0.00     0.000 O
ATOM     28  HD  SGN B   2     -19.317  52.587   9.5780  0.00  0.00     0.000 HD
BRANCH 21 30
ATOM     28   N  SGN B   2     -18.684  48.366   9.7540  0.00  0.00     0.000 N
ATOM     30  HD  SGN B   2     -18.137  48.377  10.4260  0.00  0.00     0.000 HD
ATOM     30 @NS  SGN B   2     -17.428  48.558   8.7410  0.00  0.00     0.000 S
ATOM     31   O  SGN B   2     -17.241  49.947   8.4850  0.00  0.00     0.000 OA
ATOM     32   O  SGN B   2     -16.345  48.014   9.4520  0.00  0.00     0.000 OA
ATOM     33   O  SGN B   2     -17.764  47.862   7.5570  0.00  0.00     0.000 OA
ENDBRANCH 21 30
BRANCH 24 34
ATOM     34   C  SGN B   2     -23.262  49.385  11.7390  0.00  0.00     0.000 C
ATOM     35   O  SGN B   2     -23.640  50.239  12.7590  0.00  0.00     0.000 O
ATOM     36  @S  SGN B   2     -25.093  50.514  13.1300  0.00  0.00     0.000 S
ATOM     37   O  SGN B   2     -25.393  49.529  14.1510  0.00  0.00     0.000 OA
ATOM     38   O  SGN B   2     -25.149  51.876  13.6070  0.00  0.00     0.000 OA
ATOM     39   O  SGN B   2     -25.843  50.331  11.8960  0.00  0.00     0.000 OA
ENDBRANCH 24 34
BRANCH 20 40
ATOM     40  O4  IDS B   3     -19.330  48.290  12.1110  0.00  0.00     0.000 O
BRANCH 40 44
ATOM     41  C1  IDS B   3     -18.009  46.352  14.7190  0.00  0.00     0.000 C
ATOM     42  C2  IDS B   3     -18.250  45.737  13.3420  0.00  0.00     0.000 C
ATOM     43  C3  IDS B   3     -19.620  46.042  12.7060  0.00  0.00     0.000 C
ATOM     44  C4  IDS B   3     -20.039  47.473  12.9810  0.00  0.00     0.000 C
ATOM     45  C5  IDS B   3     -19.765  47.887  14.4350  0.00  0.00     0.000 C
ATOM     46  O5  IDS B   3     -18.430  47.708  14.7410  0.00  0.00     0.000 O
ATOM     47   O  IDS B   3     -20.594  45.182  13.2590  0.00  0.00     0.000 O
ATOM     49  HD  IDS B   3     -20.243  45.695  12.6570  0.00  0.00     0.000 HD
BRANCH 42 49
ATOM     49   O  IDS B   3     -17.273  46.218  12.4630  0.00  0.00     0.000 O
ATOM     50   O  IDS B   3     -15.770  44.532  13.1340  0.00  0.00     0.000 OA
ATOM     51   O  IDS B   3     -15.858  45.156  10.8520  0.00  0.00     0.000 OA
ATOM     52   O  IDS B   3     -14.998  46.651  12.4630  0.00  0.00     0.000 OA
ATOM     53  @S  IDS B   3     -15.895  45.600  12.2100  0.00  0.00     0.000 S
ENDBRANCH 42 49
BRANCH 45 54
ATOM     54 @CA  IDS B   3     -20.191  49.306  14.8030  0.00  0.00     0.000 C
ATOM     55   O  IDS B   3     -19.486  50.253  14.5830  0.00  0.00     0.000 OA
ATOM     56   O  IDS B   3     -21.246  49.524  15.2990  0.00  0.00     0.000 OA
ENDBRANCH 45 54
BRANCH 41 57
ATOM     57  O4  SGN B   4     -18.661  45.597  15.6860  0.00  0.00     0.000 O
BRANCH 57 61
ATOM     58  C1  SGN B   4     -16.195  46.901  18.7220  0.00  0.00     0.000 C
ATOM     59  C2  SGN B   4     -15.754  45.628  18.0200  0.00  0.00     0.000 C
ATOM     60  C3  SGN B   4     -16.507  45.477  16.7020  0.00  0.00     0.000 C
ATOM     61  C4  SGN B   4     -18.024  45.517  16.9240  0.00  0.00     0.000 C
ATOM     62  C5  SGN B   4     -18.347  46.783  17.7130  0.00  0.00     0.000 C
ATOM     63  O5  SGN B   4     -17.599  46.847  18.9130  0.00  0.00     0.000 O
ATOM     64   O  SGN B   4     -16.171  44.232  16.1260  0.00  0.00     0.000 O
ATOM     66  HD  SGN B   4     -16.824  43.679  15.9960  0.00  0.00     0.000 HD
BRANCH 59 68
ATOM     66   N  SGN B   4     -14.814  44.920  18.8650  0.00  0.00     0.000 N
ATOM     68  HD  SGN B   4     -15.501  45.437  18.9680  0.00  0.00     0.000 HD
ATOM     68 @NS  SGN B   4     -13.284  45.482  19.0410  0.00  0.00     0.000 S
ATOM     69   O  SGN B   4     -12.848  46.003  17.7780  0.00  0.00     0.000 OA
ATOM     70   O  SGN B   4     -13.350  46.514  20.0350  0.00  0.00     0.000 OA
ATOM     71   O  SGN B   4     -12.531  44.339  19.4580  0.00  0.00     0.000 OA
ENDBRANCH 59 68
BRANCH 62 72
ATOM     72   C  SGN B   4     -19.814  46.874  18.1080  0.00  0.00     0.000 C
ATOM     73   O  SGN B   4     -20.526  46.354  17.0250  0.00  0.00     0.000 O
ATOM     74  @S  SGN B   4     -21.866  45.599  17.0620  0.00  0.00     0.000 S
ATOM     75   O  SGN B   4     -22.816  46.454  17.6720  0.00  0.00     0.000 OA
ATOM     76   O  SGN B   4     -22.166  45.349  15.6850  0.00  0.00     0.000 OA
ATOM     77   O  SGN B   4     -21.635  44.435  17.8490  0.00  0.00     0.000 OA
ENDBRANCH 62 72
BRANCH 58 78
ATOM     78  O4  IDS B   5     -15.799  48.033  17.9750  0.00  0.00     0.000 O
BRANCH 78 82
ATOM     79  C1  IDS B   5     -14.901  51.099  16.6370  0.00  0.00     0.000 C
ATOM     80  C2  IDS B   5     -13.830  50.165  17.1110  0.00  0.00     0.000 C
ATOM     81  C3  IDS B   5     -14.065  49.621  18.5180  0.00  0.00     0.000 C
ATOM     82  C4  IDS B   5     -15.496  49.178  18.7420  0.00  0.00     0.000 C
ATOM     83  C5  IDS B   5     -16.388  50.297  18.3080  0.00  0.00     0.000 C
ATOM     84  O5  IDS B   5     -16.178  50.564  16.9340  0.00  0.00     0.000 O
ATOM     85   O  IDS B   5     -13.792  50.657  19.4300  0.00  0.00     0.000 O
ATOM     87  HD  IDS B   5     -14.507  50.174  19.3620  0.00  0.00     0.000 HD
BRANCH 80 87
ATOM     87   O  IDS B   5     -13.796  49.084  16.2650  0.00  0.00     0.000 O
ATOM     88  @S  IDS B   5     -12.678  48.715  15.2870  0.00  0.00     0.000 S
ATOM     89   O  IDS B   5     -11.496  48.692  16.0700  0.00  0.00     0.000 OA
ATOM     90   O  IDS B   5     -13.048  47.453  14.7500  0.00  0.00     0.000 OA
ATOM     91   O  IDS B   5     -12.670  49.735  14.2970  0.00  0.00     0.000 OA
ENDBRANCH 80 87
BRANCH 83 92
ATOM     92 @CA  IDS B   5     -17.858  50.077  18.6450  0.00  0.00     0.000 C
ATOM     93   O  IDS B   5     -18.741  50.317  17.8190  0.00  0.00     0.000 OA
ATOM     94   O  IDS B   5     -18.191  49.657  19.7600  0.00  0.00     0.000 OA
ENDBRANCH 83 92
BRANCH 79 95
ATOM     95  O4  SGN B   6     -14.710  52.351  17.2070  0.00  0.00     0.000 O
BRANCH 95 99
ATOM     96  C1  SGN B   6     -16.614  56.032  17.0090  0.00  0.00     0.000 C
ATOM     97  C2  SGN B   6     -17.331  54.953  17.8120  0.00  0.00     0.000 C
ATOM     98  C3  SGN B   6     -16.268  53.932  18.2190  0.00  0.00     0.000 C
ATOM     99  C4  SGN B   6     -15.725  53.293  16.9090  0.00  0.00     0.000 C
ATOM    100  C5  SGN B   6     -15.108  54.449  16.0710  0.00  0.00     0.000 C
ATOM    101  O5  SGN B   6     -16.060  55.481  15.8300  0.00  0.00     0.000 O
BRANCH 97 104
ATOM    102   N  SGN B   6     -18.135  55.261  18.9980  0.00  0.00     0.000 N
ATOM    104  HD  SGN B   6     -18.843  54.763  19.0080  0.00  0.00     0.000 HD
ATOM    104 @NS  SGN B   6     -19.644  55.907  18.7570  0.00  0.00     0.000 S
ATOM    105   O  SGN B   6     -19.860  55.997  17.3300  0.00  0.00     0.000 OA
ATOM    106   O  SGN B   6     -20.585  55.016  19.3970  0.00  0.00     0.000 OA
ATOM    107   O  SGN B   6     -19.621  57.217  19.3690  0.00  0.00     0.000 OA
ENDBRANCH 97 104
BRANCH 100 108
ATOM    108   C  SGN B   6     -14.551  54.065  14.7060  0.00  0.00     0.000 C
ATOM    109   O  SGN B   6     -14.237  55.230  13.9850  0.00  0.00     0.000 O
ATOM    110  @S  SGN B   6     -13.643  55.279  12.5310  0.00  0.00     0.000 S
ATOM    111   O  SGN B   6     -14.326  54.247  11.7880  0.00  0.00     0.000 OA
ATOM    112   O  SGN B   6     -13.931  56.608  12.0140  0.00  0.00     0.000 OA
ATOM    113   O  SGN B   6     -12.228  55.020  12.6760  0.00  0.00     0.000 OA
ENDBRANCH 100 108
ENDBRANCH 95 99
ENDBRANCH 79 95
ENDBRANCH 78 82
ENDBRANCH 58 78
ENDBRANCH 57 61
ENDBRANCH 41 57
ENDBRANCH 40 44
ENDBRANCH 20 40
ENDBRANCH 19 23
ENDBRANCH 1 19
TORSDOF 22
ENDMDL
MODEL 48
REMARK VINA RESULT:       0.2      4.496     15.143
ROOT
ATOM      1  C1  IDS B   1     -32.258  48.067  14.2960  0.00  0.00     0.000 C
ATOM      2  C2  IDS B   1     -32.373  46.856  15.1840  0.00  0.00     0.000 C
ATOM      3  C3  IDS B   1     -32.264  47.116  16.7060  0.00  0.00     0.000 C
ATOM      4  C4  IDS B   1     -32.740  48.553  17.1380  0.00  0.00     0.000 C
ATOM      5  C5  IDS B   1     -32.555  49.605  16.0180  0.00  0.00     0.000 C
ATOM      6  O5  IDS B   1     -33.059  49.113  14.8060  0.00  0.00     0.000 O
ATOM      7   O  IDS B   1     -30.907  46.894  17.0750  0.00  0.00     0.000 O
ATOM      9  HD  IDS B   1     -31.279  47.426  17.6480  0.00  0.00     0.000 HD
ATOM      9   O  IDS B   1     -34.115  48.476  17.4390  0.00  0.00     0.000 O
ATOM     11  HD  IDS B   1     -34.488  49.008  18.0120  0.00  0.00     0.000 HD
ENDROOT
BRANCH 2 11
ATOM     11   O  IDS B   1     -33.598  46.242  14.9780  0.00  0.00     0.000 O
ATOM     12  @S  IDS B   1     -33.784  44.877  14.2870  0.00  0.00     0.000 S
ATOM     13   O  IDS B   1     -32.630  44.770  13.4170  0.00  0.00     0.000 OA
ATOM     14   O  IDS B   1     -33.785  43.875  15.3380  0.00  0.00     0.000 OA
ATOM     15   O  IDS B   1     -35.049  44.958  13.5850  0.00  0.00     0.000 OA
ENDBRANCH 2 11
BRANCH 5 16
ATOM     16 @CA  IDS B   1     -33.124  50.995  16.2880  0.00  0.00     0.000 C
ATOM     17   O  IDS B   1     -34.096  51.162  17.0210  0.00  0.00     0.000 OA
ATOM     18   O  IDS B   1     -32.609  51.989  15.7810  0.00  0.00     0.000 OA
ENDBRANCH 5 16
BRANCH 1 19
ATOM     19  O4  SGN B   2     -30.899  48.449  14.2520  0.00  0.00     0.000 O
BRANCH 19 23
ATOM     20  C1  SGN B   2     -28.481  49.794  11.2350  0.00  0.00     0.000 C
ATOM     21  C2  SGN B   2     -29.839  50.435  11.4180  0.00  0.00     0.000 C
ATOM     22  C3  SGN B   2     -30.284  50.256  12.8250  0.00  0.00     0.000 C
ATOM     23  C4  SGN B   2     -30.423  48.760  12.9920  0.00  0.00     0.000 C
ATOM     24  C5  SGN B   2     -29.038  48.224  12.8810  0.00  0.00     0.000 C
ATOM     25  O5  SGN B   2     -28.571  48.423  11.5960  0.00  0.00     0.000 O
ATOM     26   O  SGN B   2     -31.508  50.878  13.0040  0.00  0.00     0.000 O
ATOM     28  HD  SGN B   2     -32.341  51.087  13.1140  0.00  0.00     0.000 HD
BRANCH 21 30
ATOM     28   N  SGN B   2     -30.132  50.644  10.0300  0.00  0.00     0.000 N
ATOM     30  HD  SGN B   2     -29.368  50.405   9.6990  0.00  0.00     0.000 HD
ATOM     30 @NS  SGN B   2     -29.905  52.143   9.4460  0.00  0.00     0.000 S
ATOM     31   O  SGN B   2     -29.291  52.948  10.4480  0.00  0.00     0.000 OA
ATOM     32   O  SGN B   2     -29.051  51.945   8.3490  0.00  0.00     0.000 OA
ATOM     33   O  SGN B   2     -31.188  52.635   9.1120  0.00  0.00     0.000 OA
ENDBRANCH 21 30
BRANCH 24 34
ATOM     34   C  SGN B   2     -28.891  46.776  13.1710  0.00  0.00     0.000 C
ATOM     35   O  SGN B   2     -28.307  46.658  14.4190  0.00  0.00     0.000 O
ATOM     36  @S  SGN B   2     -28.184  45.335  15.1670  0.00  0.00     0.000 S
ATOM     37   O  SGN B   2     -26.891  44.817  14.7650  0.00  0.00     0.000 OA
ATOM     38   O  SGN B   2     -28.270  45.645  16.5750  0.00  0.00     0.000 OA
ATOM     39   O  SGN B   2     -29.309  44.532  14.7100  0.00  0.00     0.000 OA
ENDBRANCH 24 34
BRANCH 20 40
ATOM     40  O4  IDS B   3     -27.521  50.457  11.9980  0.00  0.00     0.000 O
BRANCH 40 44
ATOM     41  C1  IDS B   3     -24.279  51.763  11.7000  0.00  0.00     0.000 C
ATOM     42  C2  IDS B   3     -25.006  51.207  10.4770  0.00  0.00     0.000 C
ATOM     43  C3  IDS B   3     -25.689  49.839  10.6740  0.00  0.00     0.000 C
ATOM     44  C4  IDS B   3     -26.330  49.744  12.0440  0.00  0.00     0.000 C
ATOM     45  C5  IDS B   3     -25.420  50.307  13.1470  0.00  0.00     0.000 C
ATOM     46  O5  IDS B   3     -25.077  51.615  12.8650  0.00  0.00     0.000 O
ATOM     47   O  IDS B   3     -24.723  48.814  10.5640  0.00  0.00     0.000 O
ATOM     49  HD  IDS B   3     -25.515  49.162  10.5260  0.00  0.00     0.000 HD
BRANCH 42 49
ATOM     49   O  IDS B   3     -26.002  52.114  10.1010  0.00  0.00     0.000 O
ATOM     50   O  IDS B   3     -24.386  53.647   9.3350  0.00  0.00     0.000 OA
ATOM     51   O  IDS B   3     -26.393  53.379   8.1080  0.00  0.00     0.000 OA
ATOM     52   O  IDS B   3     -26.427  54.386  10.2430  0.00  0.00     0.000 OA
ATOM     53  @S  IDS B   3     -25.789  53.459   9.4010  0.00  0.00     0.000 S
ENDBRANCH 42 49
BRANCH 45 54
ATOM     54 @CA  IDS B   3     -25.980  50.217  14.5650  0.00  0.00     0.000 C
ATOM     55   O  IDS B   3     -26.078  51.187  15.2670  0.00  0.00     0.000 OA
ATOM     56   O  IDS B   3     -26.360  49.187  15.0140  0.00  0.00     0.000 OA
ENDBRANCH 45 54
BRANCH 41 57
ATOM     57  O4  SGN B   4     -23.048  51.133  11.8370  0.00  0.00     0.000 O
BRANCH 57 61
ATOM     58  C1  SGN B   4     -19.378  51.922  13.5420  0.00  0.00     0.000 C
ATOM     59  C2  SGN B   4     -20.341  51.119  14.4000  0.00  0.00     0.000 C
ATOM     60  C3  SGN B   4     -21.471  50.570  13.5330  0.00  0.00     0.000 C
ATOM     61  C4  SGN B   4     -22.180  51.696  12.7710  0.00  0.00     0.000 C
ATOM     62  C5  SGN B   4     -21.117  52.493  12.0200  0.00  0.00     0.000 C
ATOM     63  O5  SGN B   4     -20.105  52.954  12.8960  0.00  0.00     0.000 O
ATOM     64   O  SGN B   4     -22.414  49.930  14.3680  0.00  0.00     0.000 O
ATOM     66  HD  SGN B   4     -23.220  50.248  14.3540  0.00  0.00     0.000 HD
BRANCH 59 68
ATOM     66   N  SGN B   4     -19.920  51.199  15.7830  0.00  0.00     0.000 N
ATOM     68  HD  SGN B   4     -19.892  51.700  15.0770  0.00  0.00     0.000 HD
ATOM     68 @NS  SGN B   4     -18.605  50.361  16.2910  0.00  0.00     0.000 S
ATOM     69   O  SGN B   4     -18.593  49.094  15.6200  0.00  0.00     0.000 OA
ATOM     70   O  SGN B   4     -17.464  51.152  15.9300  0.00  0.00     0.000 OA
ATOM     71   O  SGN B   4     -18.787  50.237  17.7050  0.00  0.00     0.000 OA
ENDBRANCH 59 68
BRANCH 62 72
ATOM     72   C  SGN B   4     -21.682  53.720  11.3220  0.00  0.00     0.000 C
ATOM     73   O  SGN B   4     -20.613  54.276  10.6160  0.00  0.00     0.000 O
ATOM     74  @S  SGN B   4     -20.669  55.052   9.2890  0.00  0.00     0.000 S
ATOM     75   O  SGN B   4     -21.518  56.167   9.4870  0.00  0.00     0.000 OA
ATOM     76   O  SGN B   4     -19.311  55.438   9.0500  0.00  0.00     0.000 OA
ATOM     77   O  SGN B   4     -21.215  54.147   8.3330  0.00  0.00     0.000 OA
ENDBRANCH 62 72
BRANCH 58 78
ATOM     78  O4  IDS B   5     -18.719  51.074  12.6240  0.00  0.00     0.000 O
BRANCH 78 82
ATOM     79  C1  IDS B   5     -16.469  49.940  10.2480  0.00  0.00     0.000 C
ATOM     80  C2  IDS B   5     -17.026  48.974  11.2490  0.00  0.00     0.000 C
ATOM     81  C3  IDS B   5     -16.928  49.459  12.6930  0.00  0.00     0.000 C
ATOM     82  C4  IDS B   5     -17.336  50.909  12.8520  0.00  0.00     0.000 C
ATOM     83  C5  IDS B   5     -16.582  51.704  11.8350  0.00  0.00     0.000 C
ATOM     84  O5  IDS B   5     -16.918  51.252  10.5370  0.00  0.00     0.000 O
ATOM     85   O  IDS B   5     -15.583  49.348  13.0930  0.00  0.00     0.000 O
ATOM     87  HD  IDS B   5     -16.100  50.042  13.1260  0.00  0.00     0.000 HD
BRANCH 80 87
ATOM     87   O  IDS B   5     -18.359  48.794  10.9770  0.00  0.00     0.000 O
ATOM     88  @S  IDS B   5     -18.964  48.064   9.7750  0.00  0.00     0.000 S
ATOM     89   O  IDS B   5     -18.343  46.789   9.7690  0.00  0.00     0.000 OA
ATOM     90   O  IDS B   5     -20.363  48.030  10.0190  0.00  0.00     0.000 OA
ATOM     91   O  IDS B   5     -18.640  48.848   8.6350  0.00  0.00     0.000 OA
ENDBRANCH 80 87
BRANCH 83 92
ATOM     92 @CA  IDS B   5     -16.744  53.211  11.9910  0.00  0.00     0.000 C
ATOM     93   O  IDS B   5     -16.448  53.775  13.0470  0.00  0.00     0.000 OA
ATOM     94   O  IDS B   5     -17.182  53.897  11.0600  0.00  0.00     0.000 OA
ENDBRANCH 83 92
BRANCH 79 95
ATOM     95  O4  SGN B   6     -15.083  49.849  10.2360  0.00  0.00     0.000 O
BRANCH 95 99
ATOM     96  C1  SGN B   6     -12.045  50.805   7.5790  0.00  0.00     0.000 C
ATOM     97  C2  SGN B   6     -13.011  51.934   7.9210  0.00  0.00     0.000 C
ATOM     98  C3  SGN B   6     -13.654  51.567   9.2580  0.00  0.00     0.000 C
ATOM     99  C4  SGN B   6     -14.477  50.267   9.0270  0.00  0.00     0.000 C
ATOM    100  C5  SGN B   6     -13.466  49.177   8.5680  0.00  0.00     0.000 C
ATOM    101  O5  SGN B   6     -12.747  49.590   7.4090  0.00  0.00     0.000 O
BRANCH 97 104
ATOM    102   N  SGN B   6     -12.040  53.019   7.7480  0.00  0.00     0.000 N
ATOM    104  HD  SGN B   6     -12.415  53.777   7.9360  0.00  0.00     0.000 HD
ATOM    104 @NS  SGN B   6     -12.347  54.143   6.5660  0.00  0.00     0.000 S
ATOM    105   O  SGN B   6     -13.609  53.798   5.9490  0.00  0.00     0.000 OA
ATOM    106   O  SGN B   6     -12.393  55.431   7.2190  0.00  0.00     0.000 OA
ATOM    107   O  SGN B   6     -11.256  54.040   5.6240  0.00  0.00     0.000 OA
ENDBRANCH 97 104
BRANCH 100 108
ATOM    108   C  SGN B   6     -14.059  47.814   8.2300  0.00  0.00     0.000 C
ATOM    109   O  SGN B   6     -13.707  47.465   6.9150  0.00  0.00     0.000 O
ATOM    110  @S  SGN B   6     -14.120  46.142   6.1730  0.00  0.00     0.000 S
ATOM    111   O  SGN B   6     -15.492  45.892   6.5430  0.00  0.00     0.000 OA
ATOM    112   O  SGN B   6     -13.976  46.407   4.7500  0.00  0.00     0.000 OA
ATOM    113   O  SGN B   6     -13.215  45.124   6.6560  0.00  0.00     0.000 OA
ENDBRANCH 100 108
ENDBRANCH 95 99
ENDBRANCH 79 95
ENDBRANCH 78 82
ENDBRANCH 58 78
ENDBRANCH 57 61
ENDBRANCH 41 57
ENDBRANCH 40 44
ENDBRANCH 20 40
ENDBRANCH 19 23
ENDBRANCH 1 19
TORSDOF 22
ENDMDL
MODEL 49
REMARK VINA RESULT:       0.2      4.560      9.206
ROOT
ATOM      1  C1  IDS B   1     -16.578  55.489  17.3570  0.00  0.00     0.000 C
ATOM      2  C2  IDS B   1     -16.422  56.616  16.3690  0.00  0.00     0.000 C
ATOM      3  C3  IDS B   1     -17.729  57.305  15.9110  0.00  0.00     0.000 C
ATOM      4  C4  IDS B   1     -18.883  57.247  16.9800  0.00  0.00     0.000 C
ATOM      5  C5  IDS B   1     -18.781  56.008  17.9020  0.00  0.00     0.000 C
ATOM      6  O5  IDS B   1     -17.471  55.872  18.3830  0.00  0.00     0.000 O
ATOM      7   O  IDS B   1     -18.128  56.685  14.6930  0.00  0.00     0.000 O
ATOM      9  HD  IDS B   1     -18.819  57.037  15.0780  0.00  0.00     0.000 HD
ATOM      9   O  IDS B   1     -18.779  58.399  17.7860  0.00  0.00     0.000 O
ATOM     11  HD  IDS B   1     -19.470  58.751  18.1720  0.00  0.00     0.000 HD
ENDROOT
BRANCH 2 11
ATOM     11   O  IDS B   1     -15.626  57.609  16.9180  0.00  0.00     0.000 O
ATOM     12  @S  IDS B   1     -14.228  57.994  16.3970  0.00  0.00     0.000 S
ATOM     13   O  IDS B   1     -13.747  56.780  15.7680  0.00  0.00     0.000 OA
ATOM     14   O  IDS B   1     -14.420  59.075  15.4480  0.00  0.00     0.000 OA
ATOM     15   O  IDS B   1     -13.468  58.397  17.5640  0.00  0.00     0.000 OA
ENDBRANCH 2 11
BRANCH 5 16
ATOM     16 @CA  IDS B   1     -19.766  55.941  19.0660  0.00  0.00     0.000 C
ATOM     17   O  IDS B   1     -20.303  54.887  19.3950  0.00  0.00     0.000 OA
ATOM     18   O  IDS B   1     -20.035  56.950  19.7130  0.00  0.00     0.000 OA
ENDBRANCH 5 16
BRANCH 1 19
ATOM     19  O4  SGN B   2     -17.066  54.362  16.6590  0.00  0.00     0.000 O
BRANCH 19 23
ATOM     20  C1  SGN B   2     -16.151  50.374  16.8010  0.00  0.00     0.000 C
ATOM     21  C2  SGN B   2     -16.511  51.083  18.0880  0.00  0.00     0.000 C
ATOM     22  C3  SGN B   2     -17.341  52.277  17.7790  0.00  0.00     0.000 C
ATOM     23  C4  SGN B   2     -16.435  53.171  16.9650  0.00  0.00     0.000 C
ATOM     24  C5  SGN B   2     -16.202  52.435  15.6910  0.00  0.00     0.000 C
ATOM     25  O5  SGN B   2     -15.476  51.289  15.9490  0.00  0.00     0.000 O
ATOM     26   O  SGN B   2     -17.706  52.903  18.9580  0.00  0.00     0.000 O
ATOM     28  HD  SGN B   2     -17.800  53.423  19.6440  0.00  0.00     0.000 HD
BRANCH 21 30
ATOM     28   N  SGN B   2     -17.047  50.452  19.2590  0.00  0.00     0.000 N
ATOM     30  HD  SGN B   2     -16.686  50.962  19.8590  0.00  0.00     0.000 HD
ATOM     30 @NS  SGN B   2     -16.223  49.185  19.8550  0.00  0.00     0.000 S
ATOM     31   O  SGN B   2     -14.997  49.046  19.1430  0.00  0.00     0.000 OA
ATOM     32   O  SGN B   2     -16.003  49.536  21.1970  0.00  0.00     0.000 OA
ATOM     33   O  SGN B   2     -17.050  48.053  19.6700  0.00  0.00     0.000 OA
ENDBRANCH 21 30
BRANCH 24 34
ATOM     34   C  SGN B   2     -15.459  53.187  14.6490  0.00  0.00     0.000 C
ATOM     35   O  SGN B   2     -16.371  53.570  13.6810  0.00  0.00     0.000 O
ATOM     36  @S  SGN B   2     -16.041  54.542  12.5540  0.00  0.00     0.000 S
ATOM     37   O  SGN B   2     -15.592  53.692  11.4700  0.00  0.00     0.000 OA
ATOM     38   O  SGN B   2     -17.258  55.263  12.2590  0.00  0.00     0.000 OA
ATOM     39   O  SGN B   2     -15.003  55.411  13.0910  0.00  0.00     0.000 OA
ENDBRANCH 24 34
BRANCH 20 40
ATOM     40  O4  IDS B   3     -17.294  49.862  16.1890  0.00  0.00     0.000 O
BRANCH 40 44
ATOM     41  C1  IDS B   3     -19.652  47.650  14.8280  0.00  0.00     0.000 C
ATOM     42  C2  IDS B   3     -19.135  47.452  16.2520  0.00  0.00     0.000 C
ATOM     43  C3  IDS B   3     -17.607  47.551  16.4260  0.00  0.00     0.000 C
ATOM     44  C4  IDS B   3     -17.032  48.653  15.5580  0.00  0.00     0.000 C
ATOM     45  C5  IDS B   3     -17.640  48.653  14.1470  0.00  0.00     0.000 C
ATOM     46  O5  IDS B   3     -19.015  48.762  14.2160  0.00  0.00     0.000 O
ATOM     47   O  IDS B   3     -17.013  46.329  16.0420  0.00  0.00     0.000 O
ATOM     49  HD  IDS B   3     -17.072  47.080  16.4700  0.00  0.00     0.000 HD
BRANCH 42 49
ATOM     49   O  IDS B   3     -19.708  48.431  17.0720  0.00  0.00     0.000 O
ATOM     50   O  IDS B   3     -21.871  47.618  16.6160  0.00  0.00     0.000 OA
ATOM     51   O  IDS B   3     -21.354  48.352  18.8060  0.00  0.00     0.000 OA
ATOM     52   O  IDS B   3     -21.495  49.903  17.0320  0.00  0.00     0.000 OA
ATOM     53  @S  IDS B   3     -21.195  48.581  17.4040  0.00  0.00     0.000 S
ENDBRANCH 42 49
BRANCH 45 54
ATOM     54 @CA  IDS B   3     -17.087  49.713  13.1970  0.00  0.00     0.000 C
ATOM     55   O  IDS B   3     -15.926  49.741  12.8900  0.00  0.00     0.000 OA
ATOM     56   O  IDS B   3     -17.793  50.534  12.7110  0.00  0.00     0.000 OA
ENDBRANCH 45 54
BRANCH 41 57
ATOM     57  O4  SGN B   4     -19.461  46.483  14.0970  0.00  0.00     0.000 O
BRANCH 57 61
ATOM     58  C1  SGN B   4     -22.644  47.365  11.6300  0.00  0.00     0.000 C
ATOM     59  C2  SGN B   4     -22.903  46.296  12.6790  0.00  0.00     0.000 C
ATOM     60  C3  SGN B   4     -21.815  46.346  13.7470  0.00  0.00     0.000 C
ATOM     61  C4  SGN B   4     -20.421  46.215  13.1230  0.00  0.00     0.000 C
ATOM     62  C5  SGN B   4     -20.299  47.269  12.0250  0.00  0.00     0.000 C
ATOM     63  O5  SGN B   4     -21.352  47.157  11.0860  0.00  0.00     0.000 O
ATOM     64   O  SGN B   4     -22.009  45.271  14.6430  0.00  0.00     0.000 O
ATOM     66  HD  SGN B   4     -21.359  44.702  14.7070  0.00  0.00     0.000 HD
BRANCH 59 68
ATOM     66   N  SGN B   4     -24.039  45.956  11.8460  0.00  0.00     0.000 N
ATOM     68  HD  SGN B   4     -23.450  46.589  11.8940  0.00  0.00     0.000 HD
ATOM     68 @NS  SGN B   4     -25.563  46.159  12.4140  0.00  0.00     0.000 S
ATOM     69   O  SGN B   4     -25.576  45.810  13.8040  0.00  0.00     0.000 OA
ATOM     70   O  SGN B   4     -25.879  47.545  12.2220  0.00  0.00     0.000 OA
ATOM     71   O  SGN B   4     -26.360  45.278  11.6150  0.00  0.00     0.000 OA
ENDBRANCH 59 68
BRANCH 62 72
ATOM     72   C  SGN B   4     -19.000  47.158  11.2410  0.00  0.00     0.000 C
ATOM     73   O  SGN B   4     -19.314  47.552   9.9390  0.00  0.00     0.000 O
ATOM     74  @S  SGN B   4     -18.395  48.257   8.9270  0.00  0.00     0.000 S
ATOM     75   O  SGN B   4     -17.266  47.425   8.7310  0.00  0.00     0.000 OA
ATOM     76   O  SGN B   4     -19.196  48.372   7.7460  0.00  0.00     0.000 OA
ATOM     77   O  SGN B   4     -18.029  49.494   9.5300  0.00  0.00     0.000 OA
ENDBRANCH 62 72
BRANCH 58 78
ATOM     78  O4  IDS B   5     -22.786  48.651  12.1990  0.00  0.00     0.000 O
BRANCH 78 82
ATOM     79  C1  IDS B   5     -23.683  51.845  13.1920  0.00  0.00     0.000 C
ATOM     80  C2  IDS B   5     -24.733  50.779  13.1190  0.00  0.00     0.000 C
ATOM     81  C3  IDS B   5     -24.740  50.011  11.8000  0.00  0.00     0.000 C
ATOM     82  C4  IDS B   5     -23.349  49.622  11.3430  0.00  0.00     0.000 C
ATOM     83  C5  IDS B   5     -22.500  50.852  11.3870  0.00  0.00     0.000 C
ATOM     84  O5  IDS B   5     -22.448  51.344  12.7130  0.00  0.00     0.000 O
ATOM     85   O  IDS B   5     -25.293  50.850  10.8160  0.00  0.00     0.000 O
ATOM     87  HD  IDS B   5     -24.535  50.431  10.8030  0.00  0.00     0.000 HD
BRANCH 80 87
ATOM     87   O  IDS B   5     -24.488  49.866  14.1140  0.00  0.00     0.000 O
ATOM     88  @S  IDS B   5     -25.359  49.584  15.3410  0.00  0.00     0.000 S
ATOM     89   O  IDS B   5     -26.654  49.326  14.8220  0.00  0.00     0.000 OA
ATOM     90   O  IDS B   5     -24.755  48.470  15.9840  0.00  0.00     0.000 OA
ATOM     91   O  IDS B   5     -25.303  50.757  16.1400  0.00  0.00     0.000 OA
ENDBRANCH 80 87
BRANCH 83 92
ATOM     92 @CA  IDS B   5     -21.116  50.665  10.7760  0.00  0.00     0.000 C
ATOM     93   O  IDS B   5     -20.981  50.411   9.5770  0.00  0.00     0.000 OA
ATOM     94   O  IDS B   5     -20.101  50.760  11.4760  0.00  0.00     0.000 OA
ENDBRANCH 83 92
BRANCH 79 95
ATOM     95  O4  SGN B   6     -24.106  52.963  12.4850  0.00  0.00     0.000 O
BRANCH 95 99
ATOM     96  C1  SGN B   6     -22.380  56.540  11.2870  0.00  0.00     0.000 C
ATOM     97  C2  SGN B   6     -22.007  55.312  10.4650  0.00  0.00     0.000 C
ATOM     98  C3  SGN B   6     -23.116  54.284  10.6890  0.00  0.00     0.000 C
ATOM     99  C4  SGN B   6     -23.082  53.897  12.1950  0.00  0.00     0.000 C
ATOM    100  C5  SGN B   6     -23.352  55.204  12.9960  0.00  0.00     0.000 C
ATOM    101  O5  SGN B   6     -22.411  56.220  12.6640  0.00  0.00     0.000 O
BRANCH 97 104
ATOM    102   N  SGN B   6     -21.774  56.101   9.2520  0.00  0.00     0.000 N
ATOM    104  HD  SGN B   6     -21.633  55.570   8.5820  0.00  0.00     0.000 HD
ATOM    104 @NS  SGN B   6     -20.279  55.994   8.5400  0.00  0.00     0.000 S
ATOM    105   O  SGN B   6     -19.494  55.054   9.3090  0.00  0.00     0.000 OA
ATOM    106   O  SGN B   6     -20.495  55.544   7.1840  0.00  0.00     0.000 OA
ATOM    107   O  SGN B   6     -19.713  57.323   8.5980  0.00  0.00     0.000 OA
ENDBRANCH 97 104
BRANCH 100 108
ATOM    108   C  SGN B   6     -23.317  55.079  14.5140  0.00  0.00     0.000 C
ATOM    109   O  SGN B   6     -24.056  56.130  15.0860  0.00  0.00     0.000 O
ATOM    110  @S  SGN B   6     -24.267  56.374  16.6240  0.00  0.00     0.000 S
ATOM    111   O  SGN B   6     -22.998  56.086  17.2500  0.00  0.00     0.000 OA
ATOM    112   O  SGN B   6     -24.645  57.771  16.7700  0.00  0.00     0.000 OA
ATOM    113   O  SGN B   6     -25.309  55.457  17.0270  0.00  0.00     0.000 OA
ENDBRANCH 100 108
ENDBRANCH 95 99
ENDBRANCH 79 95
ENDBRANCH 78 82
ENDBRANCH 58 78
ENDBRANCH 57 61
ENDBRANCH 41 57
ENDBRANCH 40 44
ENDBRANCH 20 40
ENDBRANCH 19 23
ENDBRANCH 1 19
TORSDOF 22
ENDMDL
MODEL 50
REMARK VINA RESULT:       0.2      4.789     14.184
ROOT
ATOM      1  C1  IDS B   1     -23.512  51.389  13.8450  0.00  0.00     0.000 C
ATOM      2  C2  IDS B   1     -23.982  52.555  14.6740  0.00  0.00     0.000 C
ATOM      3  C3  IDS B   1     -24.174  53.892  13.9200  0.00  0.00     0.000 C
ATOM      4  C4  IDS B   1     -24.533  53.715  12.3980  0.00  0.00     0.000 C
ATOM      5  C5  IDS B   1     -23.966  52.405  11.7990  0.00  0.00     0.000 C
ATOM      6  O5  IDS B   1     -24.255  51.324  12.6440  0.00  0.00     0.000 O
ATOM      7   O  IDS B   1     -22.974  54.642  14.0790  0.00  0.00     0.000 O
ATOM      9  HD  IDS B   1     -23.387  54.905  13.3640  0.00  0.00     0.000 HD
ATOM      9   O  IDS B   1     -25.939  53.668  12.2910  0.00  0.00     0.000 O
ATOM     11  HD  IDS B   1     -26.352  53.931  11.5770  0.00  0.00     0.000 HD
ENDROOT
BRANCH 2 11
ATOM     11   O  IDS B   1     -25.205  52.252  15.2530  0.00  0.00     0.000 O
ATOM     12  @S  IDS B   1     -26.020  53.224  16.1270  0.00  0.00     0.000 S
ATOM     13   O  IDS B   1     -25.019  54.110  16.6860  0.00  0.00     0.000 OA
ATOM     14   O  IDS B   1     -26.939  53.912  15.2380  0.00  0.00     0.000 OA
ATOM     15   O  IDS B   1     -26.697  52.401  17.1090  0.00  0.00     0.000 OA
ENDBRANCH 2 11
BRANCH 5 16
ATOM     16 @CA  IDS B   1     -24.386  52.069  10.3710  0.00  0.00     0.000 C
ATOM     17   O  IDS B   1     -25.473  52.420   9.9200  0.00  0.00     0.000 OA
ATOM     18   O  IDS B   1     -23.631  51.445   9.6300  0.00  0.00     0.000 OA
ENDBRANCH 5 16
BRANCH 1 19
ATOM     19  O4  SGN B   2     -22.137  51.570  13.5760  0.00  0.00     0.000 O
BRANCH 19 23
ATOM     20  C1  SGN B   2     -19.400  48.684  12.6080  0.00  0.00     0.000 C
ATOM     21  C2  SGN B   2     -19.753  49.728  11.5710  0.00  0.00     0.000 C
ATOM     22  C3  SGN B   2     -20.256  50.950  12.2510  0.00  0.00     0.000 C
ATOM     23  C4  SGN B   2     -21.521  50.504  12.9480  0.00  0.00     0.000 C
ATOM     24  C5  SGN B   2     -21.073  49.548  13.9990  0.00  0.00     0.000 C
ATOM     25  O5  SGN B   2     -20.550  48.419  13.3990  0.00  0.00     0.000 O
ATOM     26   O  SGN B   2     -20.540  51.920  11.3060  0.00  0.00     0.000 O
ATOM     28  HD  SGN B   2     -20.901  52.479  10.7520  0.00  0.00     0.000 HD
BRANCH 21 30
ATOM     28   N  SGN B   2     -18.476  49.766  10.9200  0.00  0.00     0.000 N
ATOM     30  HD  SGN B   2     -18.577  50.504  10.4780  0.00  0.00     0.000 HD
ATOM     30 @NS  SGN B   2     -18.339  48.956   9.5180  0.00  0.00     0.000 S
ATOM     31   O  SGN B   2     -19.621  48.473   9.1290  0.00  0.00     0.000 OA
ATOM     32   O  SGN B   2     -17.859  49.926   8.6220  0.00  0.00     0.000 OA
ATOM     33   O  SGN B   2     -17.445  47.889   9.7640  0.00  0.00     0.000 OA
ENDBRANCH 21 30
BRANCH 24 34
ATOM     34   C  SGN B   2     -22.132  49.087  14.9310  0.00  0.00     0.000 C
ATOM     35   O  SGN B   2     -21.986  49.794  16.1110  0.00  0.00     0.000 O
ATOM     36  @S  SGN B   2     -23.008  49.763  17.2410  0.00  0.00     0.000 S
ATOM     37   O  SGN B   2     -22.560  48.684  18.0990  0.00  0.00     0.000 OA
ATOM     38   O  SGN B   2     -22.966  51.061  17.8750  0.00  0.00     0.000 OA
ATOM     39   O  SGN B   2     -24.287  49.509  16.5920  0.00  0.00     0.000 OA
ENDBRANCH 24 34
BRANCH 20 40
ATOM     40  O4  IDS B   3     -18.333  49.117  13.3930  0.00  0.00     0.000 O
BRANCH 40 44
ATOM     41  C1  IDS B   3     -15.288  49.250  15.1290  0.00  0.00     0.000 C
ATOM     42  C2  IDS B   3     -15.314  48.951  13.6320  0.00  0.00     0.000 C
ATOM     43  C3  IDS B   3     -16.343  47.897  13.1810  0.00  0.00     0.000 C
ATOM     44  C4  IDS B   3     -17.643  48.046  13.9460  0.00  0.00     0.000 C
ATOM     45  C5  IDS B   3     -17.407  48.288  15.4450  0.00  0.00     0.000 C
ATOM     46  O5  IDS B   3     -16.608  49.398  15.6310  0.00  0.00     0.000 O
ATOM     47   O  IDS B   3     -15.829  46.605  13.4290  0.00  0.00     0.000 O
ATOM     49  HD  IDS B   3     -16.320  47.198  13.0320  0.00  0.00     0.000 HD
BRANCH 42 49
ATOM     49   O  IDS B   3     -15.610  50.135  12.9470  0.00  0.00     0.000 O
ATOM     50   O  IDS B   3     -13.565  50.031  11.7830  0.00  0.00     0.000 OA
ATOM     51   O  IDS B   3     -15.505  50.758  10.6390  0.00  0.00     0.000 OA
ATOM     52   O  IDS B   3     -14.547  52.097  12.3300  0.00  0.00     0.000 OA
ATOM     53  @S  IDS B   3     -14.758  50.791  11.8570  0.00  0.00     0.000 S
ENDBRANCH 42 49
BRANCH 45 54
ATOM     54 @CA  IDS B   3     -18.670  48.415  16.2940  0.00  0.00     0.000 C
ATOM     55   O  IDS B   3     -19.416  47.487  16.4570  0.00  0.00     0.000 OA
ATOM     56   O  IDS B   3     -18.946  49.431  16.8400  0.00  0.00     0.000 OA
ENDBRANCH 45 54
BRANCH 41 57
ATOM     57  O4  SGN B   4     -14.595  48.245  15.7930  0.00  0.00     0.000 O
BRANCH 57 61
ATOM     58  C1  SGN B   4     -13.000  50.976  18.4380  0.00  0.00     0.000 C
ATOM     59  C2  SGN B   4     -12.006  50.313  17.4990  0.00  0.00     0.000 C
ATOM     60  C3  SGN B   4     -12.749  49.647  16.3440  0.00  0.00     0.000 C
ATOM     61  C4  SGN B   4     -13.801  48.659  16.8610  0.00  0.00     0.000 C
ATOM     62  C5  SGN B   4     -14.687  49.399  17.8600  0.00  0.00     0.000 C
ATOM     63  O5  SGN B   4     -13.917  49.993  18.8890  0.00  0.00     0.000 O
ATOM     64   O  SGN B   4     -11.818  48.939  15.5530  0.00  0.00     0.000 O
ATOM     66  HD  SGN B   4     -11.945  48.086  15.4800  0.00  0.00     0.000 HD
BRANCH 59 68
ATOM     66   N  SGN B   4     -10.663  50.452  18.0240  0.00  0.00     0.000 N
ATOM     68  HD  SGN B   4     -11.465  50.361  18.3380  0.00  0.00     0.000 HD
ATOM     68 @NS  SGN B   4      -9.916  51.911  17.9910  0.00  0.00     0.000 S
ATOM     69   O  SGN B   4     -10.269  52.570  16.7680  0.00  0.00     0.000 OA
ATOM     70   O  SGN B   4     -10.401  52.634  19.1310  0.00  0.00     0.000 OA
ATOM     71   O  SGN B   4      -8.521  51.598  18.0680  0.00  0.00     0.000 OA
ENDBRANCH 59 68
BRANCH 62 72
ATOM     72   C  SGN B   4     -15.697  48.488  18.5410  0.00  0.00     0.000 C
ATOM     73   O  SGN B   4     -14.978  47.797  19.5200  0.00  0.00     0.000 O
ATOM     74  @S  SGN B   4     -15.495  47.288  20.8760  0.00  0.00     0.000 S
ATOM     75   O  SGN B   4     -16.576  46.412  20.6150  0.00  0.00     0.000 OA
ATOM     76   O  SGN B   4     -14.372  46.609  21.4480  0.00  0.00     0.000 OA
ATOM     77   O  SGN B   4     -15.924  48.445  21.5880  0.00  0.00     0.000 OA
ENDBRANCH 62 72
BRANCH 58 78
ATOM     78  O4  IDS B   5     -13.644  52.051  17.7850  0.00  0.00     0.000 O
BRANCH 78 82
ATOM     79  C1  IDS B   5     -15.008  55.026  16.6510  0.00  0.00     0.000 C
ATOM     80  C2  IDS B   5     -13.527  54.932  16.8600  0.00  0.00     0.000 C
ATOM     81  C3  IDS B   5     -13.132  54.368  18.2220  0.00  0.00     0.000 C
ATOM     82  C4  IDS B   5     -13.949  53.153  18.6120  0.00  0.00     0.000 C
ATOM     83  C5  IDS B   5     -15.392  53.504  18.4340  0.00  0.00     0.000 C
ATOM     84  O5  IDS B   5     -15.636  53.831  17.0790  0.00  0.00     0.000 O
ATOM     85   O  IDS B   5     -13.368  55.367  19.1850  0.00  0.00     0.000 O
ATOM     87  HD  IDS B   5     -13.654  54.550  19.1750  0.00  0.00     0.000 HD
BRANCH 80 87
ATOM     87   O  IDS B   5     -13.012  54.083  15.9110  0.00  0.00     0.000 O
ATOM     88  @S  IDS B   5     -12.645  54.430  14.4670  0.00  0.00     0.000 S
ATOM     89   O  IDS B   5     -11.778  55.549  14.5660  0.00  0.00     0.000 OA
ATOM     90   O  IDS B   5     -12.031  53.261  13.9420  0.00  0.00     0.000 OA
ATOM     91   O  IDS B   5     -13.869  54.730  13.8110  0.00  0.00     0.000 OA
ENDBRANCH 80 87
BRANCH 83 92
ATOM     92 @CA  IDS B   5     -16.350  52.445  18.9650  0.00  0.00     0.000 C
ATOM     93   O  IDS B   5     -17.245  51.984  18.2510  0.00  0.00     0.000 OA
ATOM     94   O  IDS B   5     -16.251  52.031  20.1260  0.00  0.00     0.000 OA
ENDBRANCH 83 92
BRANCH 79 95
ATOM     95  O4  SGN B   6     -15.500  56.144  17.3110  0.00  0.00     0.000 O
BRANCH 95 99
ATOM     96  C1  SGN B   6     -18.868  58.550  17.0320  0.00  0.00     0.000 C
ATOM     97  C2  SGN B   6     -19.123  57.080  17.3440  0.00  0.00     0.000 C
ATOM     98  C3  SGN B   6     -17.826  56.528  17.9360  0.00  0.00     0.000 C
ATOM     99  C4  SGN B   6     -16.743  56.615  16.8230  0.00  0.00     0.000 C
ATOM    100  C5  SGN B   6     -16.602  58.120  16.4570  0.00  0.00     0.000 C
ATOM    101  O5  SGN B   6     -17.850  58.678  16.0580  0.00  0.00     0.000 O
BRANCH 97 104
ATOM    102   N  SGN B   6     -20.427  57.134  16.6760  0.00  0.00     0.000 N
ATOM    104  HD  SGN B   6     -20.939  57.702  17.0820  0.00  0.00     0.000 HD
ATOM    104 @NS  SGN B   6     -21.753  56.633  17.5380  0.00  0.00     0.000 S
ATOM    105   O  SGN B   6     -21.301  56.260  18.8610  0.00  0.00     0.000 OA
ATOM    106   O  SGN B   6     -22.674  57.745  17.5690  0.00  0.00     0.000 OA
ATOM    107   O  SGN B   6     -22.286  55.494  16.8250  0.00  0.00     0.000 OA
ENDBRANCH 97 104
BRANCH 100 108
ATOM    108   C  SGN B   6     -15.619  58.449  15.3390  0.00  0.00     0.000 C
ATOM    109   O  SGN B   6     -16.029  57.810  14.1550  0.00  0.00     0.000 O
ATOM    110  @S  SGN B   6     -15.292  57.882  12.7690  0.00  0.00     0.000 S
ATOM    111   O  SGN B   6     -13.882  57.808  13.0650  0.00  0.00     0.000 OA
ATOM    112   O  SGN B   6     -15.751  56.737  12.0000  0.00  0.00     0.000 OA
ATOM    113   O  SGN B   6     -15.676  59.149  12.1870  0.00  0.00     0.000 OA
ENDBRANCH 100 108
ENDBRANCH 95 99
ENDBRANCH 79 95
ENDBRANCH 78 82
ENDBRANCH 58 78
ENDBRANCH 57 61
ENDBRANCH 41 57
ENDBRANCH 40 44
ENDBRANCH 20 40
ENDBRANCH 19 23
ENDBRANCH 1 19
TORSDOF 22
ENDMDL
MODEL 51
REMARK VINA RESULT:       0.2      4.835     12.137
ROOT
ATOM      1  C1  IDS B   1     -26.702  47.608  14.7100  0.00  0.00     0.000 C
ATOM      2  C2  IDS B   1     -27.105  47.600  13.2590  0.00  0.00     0.000 C
ATOM      3  C3  IDS B   1     -27.359  46.208  12.6310  0.00  0.00     0.000 C
ATOM      4  C4  IDS B   1     -27.839  45.125  13.6680  0.00  0.00     0.000 C
ATOM      5  C5  IDS B   1     -27.320  45.398  15.1000  0.00  0.00     0.000 C
ATOM      6  O5  IDS B   1     -27.539  46.739  15.4450  0.00  0.00     0.000 O
ATOM      7   O  IDS B   1     -26.151  45.806  11.9940  0.00  0.00     0.000 O
ATOM      9  HD  IDS B   1     -26.621  45.106  12.1920  0.00  0.00     0.000 HD
ATOM      9   O  IDS B   1     -29.248  45.159  13.7020  0.00  0.00     0.000 O
ATOM     11  HD  IDS B   1     -29.718  44.459  13.9000  0.00  0.00     0.000 HD
ENDROOT
BRANCH 2 11
ATOM     11   O  IDS B   1     -28.277  48.323  13.0970  0.00  0.00     0.000 O
ATOM     12  @S  IDS B   1     -28.634  49.131  11.8340  0.00  0.00     0.000 S
ATOM     13   O  IDS B   1     -27.346  49.474  11.2660  0.00  0.00     0.000 OA
ATOM     14   O  IDS B   1     -29.403  48.246  10.9780  0.00  0.00     0.000 OA
ATOM     15   O  IDS B   1     -29.400  50.271  12.2990  0.00  0.00     0.000 OA
ENDBRANCH 2 11
BRANCH 5 16
ATOM     16 @CA  IDS B   1     -27.853  44.489  16.2030  0.00  0.00     0.000 C
ATOM     17   O  IDS B   1     -27.099  43.875  16.9540  0.00  0.00     0.000 OA
ATOM     18   O  IDS B   1     -29.063  44.360  16.3750  0.00  0.00     0.000 OA
ENDBRANCH 5 16
BRANCH 1 19
ATOM     19  O4  SGN B   2     -25.353  47.196  14.7910  0.00  0.00     0.000 O
BRANCH 19 23
ATOM     20  C1  SGN B   2     -22.570  48.022  17.6770  0.00  0.00     0.000 C
ATOM     21  C2  SGN B   2     -23.190  46.643  17.6390  0.00  0.00     0.000 C
ATOM     22  C3  SGN B   2     -23.679  46.358  16.2650  0.00  0.00     0.000 C
ATOM     23  C4  SGN B   2     -24.759  47.387  16.0240  0.00  0.00     0.000 C
ATOM     24  C5  SGN B   2     -24.051  48.697  15.9940  0.00  0.00     0.000 C
ATOM     25  O5  SGN B   2     -23.537  48.970  17.2470  0.00  0.00     0.000 O
ATOM     26   O  SGN B   2     -24.210  45.080  16.2190  0.00  0.00     0.000 O
ATOM     28  HD  SGN B   2     -24.710  44.374  16.1890  0.00  0.00     0.000 HD
BRANCH 21 30
ATOM     28   N  SGN B   2     -22.316  46.798  18.7650  0.00  0.00     0.000 N
ATOM     30  HD  SGN B   2     -21.563  46.639  18.3680  0.00  0.00     0.000 HD
ATOM     30 @NS  SGN B   2     -22.085  45.492  19.7040  0.00  0.00     0.000 S
ATOM     31   O  SGN B   2     -22.714  44.365  19.1020  0.00  0.00     0.000 OA
ATOM     32   O  SGN B   2     -20.688  45.349  19.7340  0.00  0.00     0.000 OA
ATOM     33   O  SGN B   2     -22.672  45.796  20.9550  0.00  0.00     0.000 OA
ENDBRANCH 21 30
BRANCH 24 34
ATOM     34   C  SGN B   2     -24.887  49.863  15.6110  0.00  0.00     0.000 C
ATOM     35   O  SGN B   2     -24.434  50.955  16.3300  0.00  0.00     0.000 O
ATOM     36  @S  SGN B   2     -24.891  52.384  16.0640  0.00  0.00     0.000 S
ATOM     37   O  SGN B   2     -26.029  52.565  16.9440  0.00  0.00     0.000 OA
ATOM     38   O  SGN B   2     -23.774  53.243  16.3800  0.00  0.00     0.000 OA
ATOM     39   O  SGN B   2     -25.230  52.419  14.6480  0.00  0.00     0.000 OA
ENDBRANCH 24 34
BRANCH 20 40
ATOM     40  O4  IDS B   3     -21.428  48.066  16.8780  0.00  0.00     0.000 O
BRANCH 40 44
ATOM     41  C1  IDS B   3     -18.181  48.558  15.6460  0.00  0.00     0.000 C
ATOM     42  C2  IDS B   3     -18.500  47.355  16.5300  0.00  0.00     0.000 C
ATOM     43  C3  IDS B   3     -19.313  47.660  17.8030  0.00  0.00     0.000 C
ATOM     44  C4  IDS B   3     -20.379  48.702  17.5290  0.00  0.00     0.000 C
ATOM     45  C5  IDS B   3     -19.848  49.859  16.6680  0.00  0.00     0.000 C
ATOM     46  O5  IDS B   3     -19.330  49.376  15.4820  0.00  0.00     0.000 O
ATOM     47   O  IDS B   3     -18.449  48.162  18.8010  0.00  0.00     0.000 O
ATOM     49  HD  IDS B   3     -19.154  47.765  18.4920  0.00  0.00     0.000 HD
BRANCH 42 49
ATOM     49   O  IDS B   3     -19.241  46.435  15.7800  0.00  0.00     0.000 O
ATOM     50   O  IDS B   3     -18.316  44.633  16.9820  0.00  0.00     0.000 OA
ATOM     51   O  IDS B   3     -20.602  44.559  16.3730  0.00  0.00     0.000 OA
ATOM     52   O  IDS B   3     -18.924  44.400  14.7210  0.00  0.00     0.000 OA
ATOM     53  @S  IDS B   3     -19.276  44.917  15.9790  0.00  0.00     0.000 S
ENDBRANCH 42 49
BRANCH 45 54
ATOM     54 @CA  IDS B   3     -20.854  50.970  16.3750  0.00  0.00     0.000 C
ATOM     55   O  IDS B   3     -21.239  51.715  17.2350  0.00  0.00     0.000 OA
ATOM     56   O  IDS B   3     -21.272  51.151  15.2800  0.00  0.00     0.000 OA
ENDBRANCH 45 54
BRANCH 41 57
ATOM     57  O4  SGN B   4     -17.119  49.268  16.1920  0.00  0.00     0.000 O
BRANCH 57 61
ATOM     58  C1  SGN B   4     -16.352  51.789  13.0200  0.00  0.00     0.000 C
ATOM     59  C2  SGN B   4     -15.965  50.335  12.8110  0.00  0.00     0.000 C
ATOM     60  C3  SGN B   4     -16.642  49.462  13.8640  0.00  0.00     0.000 C
ATOM     61  C4  SGN B   4     -16.313  49.949  15.2800  0.00  0.00     0.000 C
ATOM     62  C5  SGN B   4     -16.652  51.435  15.3550  0.00  0.00     0.000 C
ATOM     63  O5  SGN B   4     -15.991  52.165  14.3390  0.00  0.00     0.000 O
ATOM     64   O  SGN B   4     -16.175  48.136  13.7250  0.00  0.00     0.000 O
ATOM     66  HD  SGN B   4     -15.772  47.796  14.4120  0.00  0.00     0.000 HD
BRANCH 59 68
ATOM     66   N  SGN B   4     -15.046  50.115  11.7130  0.00  0.00     0.000 N
ATOM     68  HD  SGN B   4     -15.150  50.689  12.3530  0.00  0.00     0.000 HD
ATOM     68 @NS  SGN B   4     -15.509  50.451  10.1760  0.00  0.00     0.000 S
ATOM     69   O  SGN B   4     -16.886  50.083  10.0310  0.00  0.00     0.000 OA
ATOM     70   O  SGN B   4     -15.326  51.863  10.0040  0.00  0.00     0.000 OA
ATOM     71   O  SGN B   4     -14.636  49.661   9.3620  0.00  0.00     0.000 OA
ENDBRANCH 59 68
BRANCH 62 72
ATOM     72   C  SGN B   4     -16.250  52.067  16.6790  0.00  0.00     0.000 C
ATOM     73   O  SGN B   4     -14.899  52.393  16.5430  0.00  0.00     0.000 O
ATOM     74  @S  SGN B   4     -14.148  53.566  17.1980  0.00  0.00     0.000 S
ATOM     75   O  SGN B   4     -14.291  53.428  18.6000  0.00  0.00     0.000 OA
ATOM     76   O  SGN B   4     -12.792  53.397  16.7710  0.00  0.00     0.000 OA
ATOM     77   O  SGN B   4     -14.786  54.748  16.7250  0.00  0.00     0.000 OA
ENDBRANCH 62 72
BRANCH 58 78
ATOM     78  O4  IDS B   5     -17.731  51.966  12.7700  0.00  0.00     0.000 O
BRANCH 78 82
ATOM     79  C1  IDS B   5     -20.978  53.072  12.2880  0.00  0.00     0.000 C
ATOM     80  C2  IDS B   5     -20.262  52.391  11.1630  0.00  0.00     0.000 C
ATOM     81  C3  IDS B   5     -18.871  52.954  10.8860  0.00  0.00     0.000 C
ATOM     82  C4  IDS B   5     -18.072  53.189  12.1520  0.00  0.00     0.000 C
ATOM     83  C5  IDS B   5     -18.932  53.978  13.0870  0.00  0.00     0.000 C
ATOM     84  O5  IDS B   5     -20.103  53.242  13.3880  0.00  0.00     0.000 O
ATOM     85   O  IDS B   5     -19.030  54.198  10.2460  0.00  0.00     0.000 O
ATOM     87  HD  IDS B   5     -18.573  54.013  10.9590  0.00  0.00     0.000 HD
BRANCH 80 87
ATOM     87   O  IDS B   5     -20.099  51.069  11.4950  0.00  0.00     0.000 O
ATOM     88  @S  IDS B   5     -20.546  49.852  10.6800  0.00  0.00     0.000 S
ATOM     89   O  IDS B   5     -19.989  50.049   9.3900  0.00  0.00     0.000 OA
ATOM     90   O  IDS B   5     -20.031  48.724  11.3730  0.00  0.00     0.000 OA
ATOM     91   O  IDS B   5     -21.967  49.877  10.6830  0.00  0.00     0.000 OA
ENDBRANCH 80 87
BRANCH 83 92
ATOM     92 @CA  IDS B   5     -18.201  54.455  14.3370  0.00  0.00     0.000 C
ATOM     93   O  IDS B   5     -18.634  54.197  15.4630  0.00  0.00     0.000 OA
ATOM     94   O  IDS B   5     -17.161  55.117  14.2430  0.00  0.00     0.000 OA
ENDBRANCH 83 92
BRANCH 79 95
ATOM     95  O4  SGN B   6     -21.501  54.279  11.8420  0.00  0.00     0.000 O
BRANCH 95 99
ATOM     96  C1  SGN B   6     -24.355  56.925  13.2800  0.00  0.00     0.000 C
ATOM     97  C2  SGN B   6     -23.507  56.221  14.3340  0.00  0.00     0.000 C
ATOM     98  C3  SGN B   6     -22.226  55.769  13.6320  0.00  0.00     0.000 C
ATOM     99  C4  SGN B   6     -22.640  54.725  12.5560  0.00  0.00     0.000 C
ATOM    100  C5  SGN B   6     -23.596  55.458  11.5710  0.00  0.00     0.000 C
ATOM    101  O5  SGN B   6     -24.712  56.022  12.2520  0.00  0.00     0.000 O
BRANCH 97 104
ATOM    102   N  SGN B   6     -23.296  56.095  15.7790  0.00  0.00     0.000 N
ATOM    104  HD  SGN B   6     -23.996  55.741  16.1450  0.00  0.00     0.000 HD
ATOM    104 @NS  SGN B   6     -24.280  56.979  16.7800  0.00  0.00     0.000 S
ATOM    105   O  SGN B   6     -25.216  57.703  15.9480  0.00  0.00     0.000 OA
ATOM    106   O  SGN B   6     -24.941  56.036  17.6520  0.00  0.00     0.000 OA
ATOM    107   O  SGN B   6     -23.410  57.881  17.5000  0.00  0.00     0.000 OA
ENDBRANCH 97 104
BRANCH 100 108
ATOM    108   C  SGN B   6     -24.176  54.610  10.4450  0.00  0.00     0.000 C
ATOM    109   O  SGN B   6     -25.489  54.232  10.7740  0.00  0.00     0.000 O
ATOM    110  @S  SGN B   6     -26.441  53.349   9.8890  0.00  0.00     0.000 S
ATOM    111   O  SGN B   6     -25.611  52.309   9.3300  0.00  0.00     0.000 OA
ATOM    112   O  SGN B   6     -27.457  52.817  10.7830  0.00  0.00     0.000 OA
ATOM    113   O  SGN B   6     -26.977  54.238   8.8830  0.00  0.00     0.000 OA
ENDBRANCH 100 108
ENDBRANCH 95 99
ENDBRANCH 79 95
ENDBRANCH 78 82
ENDBRANCH 58 78
ENDBRANCH 57 61
ENDBRANCH 41 57
ENDBRANCH 40 44
ENDBRANCH 20 40
ENDBRANCH 19 23
ENDBRANCH 1 19
TORSDOF 22
ENDMDL
MODEL 52
REMARK VINA RESULT:       0.3      5.286     12.235
ROOT
ATOM      1  C1  IDS B   1     -17.820  56.932  14.4020  0.00  0.00     0.000 C
ATOM      2  C2  IDS B   1     -16.321  56.795  14.4580  0.00  0.00     0.000 C
ATOM      3  C3  IDS B   1     -15.573  56.950  13.1120  0.00  0.00     0.000 C
ATOM      4  C4  IDS B   1     -16.319  57.872  12.0760  0.00  0.00     0.000 C
ATOM      5  C5  IDS B   1     -17.854  57.868  12.2700  0.00  0.00     0.000 C
ATOM      6  O5  IDS B   1     -18.169  58.058  13.6230  0.00  0.00     0.000 O
ATOM      7   O  IDS B   1     -15.379  55.641  12.5840  0.00  0.00     0.000 O
ATOM      9  HD  IDS B   1     -15.364  56.218  11.9390  0.00  0.00     0.000 HD
ATOM      9   O  IDS B   1     -15.859  59.191  12.2680  0.00  0.00     0.000 O
ATOM     11  HD  IDS B   1     -15.844  59.768  11.6230  0.00  0.00     0.000 HD
ENDROOT
BRANCH 2 11
ATOM     11   O  IDS B   1     -15.797  57.755  15.3090  0.00  0.00     0.000 O
ATOM     12  @S  IDS B   1     -14.670  57.494  16.3280  0.00  0.00     0.000 S
ATOM     13   O  IDS B   1     -14.789  56.080  16.6220  0.00  0.00     0.000 OA
ATOM     14   O  IDS B   1     -13.423  57.821  15.6610  0.00  0.00     0.000 OA
ATOM     15   O  IDS B   1     -14.949  58.359  17.4570  0.00  0.00     0.000 OA
ENDBRANCH 2 11
BRANCH 5 16
ATOM     16 @CA  IDS B   1     -18.653  58.845  11.4130  0.00  0.00     0.000 C
ATOM     17   O  IDS B   1     -19.690  58.508  10.8460  0.00  0.00     0.000 OA
ATOM     18   O  IDS B   1     -18.278  60.008  11.2800  0.00  0.00     0.000 OA
ENDBRANCH 5 16
BRANCH 1 19
ATOM     19  O4  SGN B   2     -18.347  55.748  13.8390  0.00  0.00     0.000 O
BRANCH 19 23
ATOM     20  C1  SGN B   2     -21.637  53.524  14.8290  0.00  0.00     0.000 C
ATOM     21  C2  SGN B   2     -21.782  54.613  13.7890  0.00  0.00     0.000 C
ATOM     22  C3  SGN B   2     -20.460  54.879  13.1650  0.00  0.00     0.000 C
ATOM     23  C4  SGN B   2     -19.602  55.395  14.2970  0.00  0.00     0.000 C
ATOM     24  C5  SGN B   2     -19.444  54.241  15.2250  0.00  0.00     0.000 C
ATOM     25  O5  SGN B   2     -20.668  53.931  15.7850  0.00  0.00     0.000 O
ATOM     26   O  SGN B   2     -20.599  55.846  12.1840  0.00  0.00     0.000 O
ATOM     28  HD  SGN B   2     -20.603  56.565  11.7020  0.00  0.00     0.000 HD
BRANCH 21 30
ATOM     28   N  SGN B   2     -22.978  53.822  13.8280  0.00  0.00     0.000 N
ATOM     30  HD  SGN B   2     -22.873  53.389  13.0850  0.00  0.00     0.000 HD
ATOM     30 @NS  SGN B   2     -24.329  54.498  13.2320  0.00  0.00     0.000 S
ATOM     31   O  SGN B   2     -24.001  55.745  12.6260  0.00  0.00     0.000 OA
ATOM     32   O  SGN B   2     -24.774  53.565  12.2810  0.00  0.00     0.000 OA
ATOM     33   O  SGN B   2     -25.200  54.678  14.3310  0.00  0.00     0.000 OA
ENDBRANCH 21 30
BRANCH 24 34
ATOM     34   C  SGN B   2     -18.500  54.454  16.3510  0.00  0.00     0.000 C
ATOM     35   O  SGN B   2     -19.105  55.320  17.2440  0.00  0.00     0.000 O
ATOM     36  @S  SGN B   2     -18.549  55.620  18.6310  0.00  0.00     0.000 S
ATOM     37   O  SGN B   2     -17.702  56.779  18.4330  0.00  0.00     0.000 OA
ATOM     38   O  SGN B   2     -19.685  55.873  19.4880  0.00  0.00     0.000 OA
ATOM     39   O  SGN B   2     -17.823  54.419  19.0190  0.00  0.00     0.000 OA
ENDBRANCH 24 34
BRANCH 20 40
ATOM     40  O4  IDS B   3     -21.280  52.318  14.2270  0.00  0.00     0.000 O
BRANCH 40 44
ATOM     41  C1  IDS B   3     -20.951  48.929  13.3840  0.00  0.00     0.000 C
ATOM     42  C2  IDS B   3     -22.215  49.701  13.0110  0.00  0.00     0.000 C
ATOM     43  C3  IDS B   3     -22.827  50.560  14.1350  0.00  0.00     0.000 C
ATOM     44  C4  IDS B   3     -21.744  51.231  14.9560  0.00  0.00     0.000 C
ATOM     45  C5  IDS B   3     -20.583  50.275  15.2740  0.00  0.00     0.000 C
ATOM     46  O5  IDS B   3     -20.054  49.759  14.1070  0.00  0.00     0.000 O
ATOM     47   O  IDS B   3     -23.586  49.734  14.9940  0.00  0.00     0.000 O
ATOM     49  HD  IDS B   3     -23.359  50.474  14.6040  0.00  0.00     0.000 HD
BRANCH 42 49
ATOM     49   O  IDS B   3     -21.913  50.564  11.9520  0.00  0.00     0.000 O
ATOM     50   O  IDS B   3     -22.282  48.848  10.3820  0.00  0.00     0.000 OA
ATOM     51   O  IDS B   3     -22.998  51.046   9.8750  0.00  0.00     0.000 OA
ATOM     52   O  IDS B   3     -20.696  50.538   9.9830  0.00  0.00     0.000 OA
ATOM     53  @S  IDS B   3     -21.981  50.230  10.4600  0.00  0.00     0.000 S
ENDBRANCH 42 49
BRANCH 45 54
ATOM     54 @CA  IDS B   3     -19.465  50.866  16.1290  0.00  0.00     0.000 C
ATOM     55   O  IDS B   3     -19.663  51.247  17.2500  0.00  0.00     0.000 OA
ATOM     56   O  IDS B   3     -18.354  50.948  15.7200  0.00  0.00     0.000 OA
ENDBRANCH 45 54
BRANCH 41 57
ATOM     57  O4  SGN B   4     -21.296  47.793  14.1070  0.00  0.00     0.000 O
BRANCH 57 61
ATOM     58  C1  SGN B   4     -17.605  45.963  13.9360  0.00  0.00     0.000 C
ATOM     59  C2  SGN B   4     -18.444  45.868  12.6730  0.00  0.00     0.000 C
ATOM     60  C3  SGN B   4     -19.576  46.889  12.7250  0.00  0.00     0.000 C
ATOM     61  C4  SGN B   4     -20.420  46.714  13.9930  0.00  0.00     0.000 C
ATOM     62  C5  SGN B   4     -19.475  46.734  15.1910  0.00  0.00     0.000 C
ATOM     63  O5  SGN B   4     -18.453  45.764  15.0550  0.00  0.00     0.000 O
ATOM     64   O  SGN B   4     -20.410  46.702  11.6000  0.00  0.00     0.000 O
ATOM     66  HD  SGN B   4     -21.238  46.507  11.7640  0.00  0.00     0.000 HD
BRANCH 59 68
ATOM     66   N  SGN B   4     -17.939  44.774  11.8680  0.00  0.00     0.000 N
ATOM     68  HD  SGN B   4     -17.994  44.975  12.7080  0.00  0.00     0.000 HD
ATOM     68 @NS  SGN B   4     -16.537  44.947  11.0350  0.00  0.00     0.000 S
ATOM     69   O  SGN B   4     -16.479  46.286  10.5260  0.00  0.00     0.000 OA
ATOM     70   O  SGN B   4     -15.482  44.699  11.9740  0.00  0.00     0.000 OA
ATOM     71   O  SGN B   4     -16.618  43.964   9.9980  0.00  0.00     0.000 OA
ENDBRANCH 59 68
BRANCH 62 72
ATOM     72   C  SGN B   4     -20.182  46.441  16.5060  0.00  0.00     0.000 C
ATOM     73   O  SGN B   4     -19.614  47.313  17.4380  0.00  0.00     0.000 O
ATOM     74  @S  SGN B   4     -20.294  47.943  18.6650  0.00  0.00     0.000 S
ATOM     75   O  SGN B   4     -20.761  46.884  19.4810  0.00  0.00     0.000 OA
ATOM     76   O  SGN B   4     -19.252  48.696  19.2960  0.00  0.00     0.000 OA
ATOM     77   O  SGN B   4     -21.374  48.720  18.1550  0.00  0.00     0.000 OA
ENDBRANCH 62 72
BRANCH 58 78
ATOM     78  O4  IDS B   5     -16.936  47.207  13.9840  0.00  0.00     0.000 O
BRANCH 78 82
ATOM     79  C1  IDS B   5     -14.780  49.917  14.0060  0.00  0.00     0.000 C
ATOM     80  C2  IDS B   5     -14.786  48.996  12.8250  0.00  0.00     0.000 C
ATOM     81  C3  IDS B   5     -14.677  47.519  13.1940  0.00  0.00     0.000 C
ATOM     82  C4  IDS B   5     -15.576  47.138  14.3530  0.00  0.00     0.000 C
ATOM     83  C5  IDS B   5     -15.326  48.116  15.4560  0.00  0.00     0.000 C
ATOM     84  O5  IDS B   5     -15.644  49.422  15.0120  0.00  0.00     0.000 O
ATOM     85   O  IDS B   5     -13.349  47.271  13.5850  0.00  0.00     0.000 O
ATOM     87  HD  IDS B   5     -14.079  47.099  14.0170  0.00  0.00     0.000 HD
BRANCH 80 87
ATOM     87   O  IDS B   5     -15.977  49.156  12.1620  0.00  0.00     0.000 O
ATOM     88  @S  IDS B   5     -16.202  49.884  10.8340  0.00  0.00     0.000 S
ATOM     89   O  IDS B   5     -15.278  49.299   9.9320  0.00  0.00     0.000 OA
ATOM     90   O  IDS B   5     -17.565  49.655  10.5040  0.00  0.00     0.000 OA
ATOM     91   O  IDS B   5     -15.939  51.257  11.0890  0.00  0.00     0.000 OA
ENDBRANCH 80 87
BRANCH 83 92
ATOM     92 @CA  IDS B   5     -16.021  47.756  16.7640  0.00  0.00     0.000 C
ATOM     93   O  IDS B   5     -15.964  46.611  17.2180  0.00  0.00     0.000 OA
ATOM     94   O  IDS B   5     -16.660  48.608  17.3930  0.00  0.00     0.000 OA
ENDBRANCH 83 92
BRANCH 79 95
ATOM     95  O4  SGN B   6     -13.478  50.076  14.4630  0.00  0.00     0.000 O
BRANCH 95 99
ATOM     96  C1  SGN B   6     -11.532  52.842  16.8660  0.00  0.00     0.000 C
ATOM     97  C2  SGN B   6     -12.953  52.481  17.2830  0.00  0.00     0.000 C
ATOM     98  C3  SGN B   6     -13.258  51.119  16.6580  0.00  0.00     0.000 C
ATOM     99  C4  SGN B   6     -13.230  51.309  15.1140  0.00  0.00     0.000 C
ATOM    100  C5  SGN B   6     -11.796  51.790  14.7510  0.00  0.00     0.000 C
ATOM    101  O5  SGN B   6     -11.450  52.976  15.4610  0.00  0.00     0.000 O
BRANCH 97 104
ATOM    102   N  SGN B   6     -13.863  53.476  17.8580  0.00  0.00     0.000 N
ATOM    104  HD  SGN B   6     -13.415  54.181  18.0870  0.00  0.00     0.000 HD
ATOM    104 @NS  SGN B   6     -13.651  53.879  19.4530  0.00  0.00     0.000 S
ATOM    105   O  SGN B   6     -12.515  53.132  19.9480  0.00  0.00     0.000 OA
ATOM    106   O  SGN B   6     -13.426  55.306  19.4950  0.00  0.00     0.000 OA
ATOM    107   O  SGN B   6     -14.869  53.492  20.1290  0.00  0.00     0.000 OA
ENDBRANCH 97 104
BRANCH 100 108
ATOM    108   C  SGN B   6     -11.543  52.093  13.2790  0.00  0.00     0.000 C
ATOM    109   O  SGN B   6     -12.589  52.889  12.7800  0.00  0.00     0.000 O
ATOM    110  @S  SGN B   6     -12.719  53.420  11.3070  0.00  0.00     0.000 S
ATOM    111   O  SGN B   6     -12.297  52.333  10.4550  0.00  0.00     0.000 OA
ATOM    112   O  SGN B   6     -14.120  53.755  11.1120  0.00  0.00     0.000 OA
ATOM    113   O  SGN B   6     -11.842  54.566  11.2250  0.00  0.00     0.000 OA
ENDBRANCH 100 108
ENDBRANCH 95 99
ENDBRANCH 79 95
ENDBRANCH 78 82
ENDBRANCH 58 78
ENDBRANCH 57 61
ENDBRANCH 41 57
ENDBRANCH 40 44
ENDBRANCH 20 40
ENDBRANCH 19 23
ENDBRANCH 1 19
TORSDOF 22
ENDMDL
MODEL 53
REMARK VINA RESULT:       0.3      4.588     11.605
ROOT
ATOM      1  C1  IDS B   1     -24.451  55.808  10.9270  0.00  0.00     0.000 C
ATOM      2  C2  IDS B   1     -25.455  54.917  10.2440  0.00  0.00     0.000 C
ATOM      3  C3  IDS B   1     -26.529  54.277  11.1570  0.00  0.00     0.000 C
ATOM      4  C4  IDS B   1     -26.861  55.131  12.4370  0.00  0.00     0.000 C
ATOM      5  C5  IDS B   1     -25.666  55.996  12.9050  0.00  0.00     0.000 C
ATOM      6  O5  IDS B   1     -25.114  56.685  11.8140  0.00  0.00     0.000 O
ATOM      7   O  IDS B   1     -26.061  52.980  11.5140  0.00  0.00     0.000 O
ATOM      9  HD  IDS B   1     -26.622  53.260  12.1110  0.00  0.00     0.000 HD
ATOM      9   O  IDS B   1     -27.924  55.998  12.1110  0.00  0.00     0.000 O
ATOM     11  HD  IDS B   1     -28.486  56.277  12.7080  0.00  0.00     0.000 HD
ENDROOT
BRANCH 2 11
ATOM     11   O  IDS B   1     -26.141  55.640   9.2810  0.00  0.00     0.000 O
ATOM     12  @S  IDS B   1     -26.016  55.406   7.7630  0.00  0.00     0.000 S
ATOM     13   O  IDS B   1     -24.692  54.838   7.6070  0.00  0.00     0.000 OA
ATOM     14   O  IDS B   1     -27.068  54.475   7.3970  0.00  0.00     0.000 OA
ATOM     15   O  IDS B   1     -26.177  56.709   7.1470  0.00  0.00     0.000 OA
ENDBRANCH 2 11
BRANCH 5 16
ATOM     16 @CA  IDS B   1     -25.935  56.971  14.0470  0.00  0.00     0.000 C
ATOM     17   O  IDS B   1     -25.061  57.274  14.8560  0.00  0.00     0.000 OA
ATOM     18   O  IDS B   1     -27.041  57.491  14.1750  0.00  0.00     0.000 OA
ENDBRANCH 5 16
BRANCH 1 19
ATOM     19  O4  SGN B   2     -23.538  54.985  11.6220  0.00  0.00     0.000 O
BRANCH 19 23
ATOM     20  C1  SGN B   2     -20.358  56.000  13.9910  0.00  0.00     0.000 C
ATOM     21  C2  SGN B   2     -21.660  55.608  14.6520  0.00  0.00     0.000 C
ATOM     22  C3  SGN B   2     -22.446  54.751  13.7270  0.00  0.00     0.000 C
ATOM     23  C4  SGN B   2     -22.747  55.643  12.5440  0.00  0.00     0.000 C
ATOM     24  C5  SGN B   2     -21.426  55.909  11.9090  0.00  0.00     0.000 C
ATOM     25  O5  SGN B   2     -20.647  56.661  12.7670  0.00  0.00     0.000 O
ATOM     26   O  SGN B   2     -23.619  54.357  14.3460  0.00  0.00     0.000 O
ATOM     28  HD  SGN B   2     -24.434  54.242  14.6170  0.00  0.00     0.000 HD
BRANCH 21 30
ATOM     28   N  SGN B   2     -20.688  55.430  15.6910  0.00  0.00     0.000 N
ATOM     30  HD  SGN B   2     -20.883  54.616  15.9140  0.00  0.00     0.000 HD
ATOM     30 @NS  SGN B   2     -21.104  55.926  17.1820  0.00  0.00     0.000 S
ATOM     31   O  SGN B   2     -22.473  56.319  17.1800  0.00  0.00     0.000 OA
ATOM     32   O  SGN B   2     -20.896  54.787  17.9780  0.00  0.00     0.000 OA
ATOM     33   O  SGN B   2     -20.259  57.018  17.4850  0.00  0.00     0.000 OA
ENDBRANCH 21 30
BRANCH 24 34
ATOM     34   C  SGN B   2     -21.476  56.643  10.6210  0.00  0.00     0.000 C
ATOM     35   O  SGN B   2     -20.726  55.929   9.7040  0.00  0.00     0.000 O
ATOM     36  @S  SGN B   2     -20.705  56.239   8.2110  0.00  0.00     0.000 S
ATOM     37   O  SGN B   2     -19.598  57.162   8.0550  0.00  0.00     0.000 OA
ATOM     38   O  SGN B   2     -20.510  54.982   7.5280  0.00  0.00     0.000 OA
ATOM     39   O  SGN B   2     -22.006  56.826   7.9250  0.00  0.00     0.000 OA
ENDBRANCH 24 34
BRANCH 20 40
ATOM     40  O4  IDS B   3     -19.558  54.877  13.7830  0.00  0.00     0.000 O
BRANCH 40 44
ATOM     41  C1  IDS B   3     -16.412  53.387  14.2170  0.00  0.00     0.000 C
ATOM     42  C2  IDS B   3     -16.783  54.654  14.9860  0.00  0.00     0.000 C
ATOM     43  C3  IDS B   3     -17.425  55.777  14.1490  0.00  0.00     0.000 C
ATOM     44  C4  IDS B   3     -18.383  55.208  13.1210  0.00  0.00     0.000 C
ATOM     45  C5  IDS B   3     -17.807  53.969  12.4190  0.00  0.00     0.000 C
ATOM     46  O5  IDS B   3     -17.468  53.004  13.3480  0.00  0.00     0.000 O
ATOM     47   O  IDS B   3     -16.414  56.488  13.4660  0.00  0.00     0.000 O
ATOM     49  HD  IDS B   3     -17.187  56.375  13.8390  0.00  0.00     0.000 HD
BRANCH 42 49
ATOM     49   O  IDS B   3     -17.696  54.314  15.9890  0.00  0.00     0.000 O
ATOM     50   O  IDS B   3     -15.951  53.636  17.4180  0.00  0.00     0.000 OA
ATOM     51   O  IDS B   3     -17.804  54.791  18.3320  0.00  0.00     0.000 OA
ATOM     52   O  IDS B   3     -18.060  52.597  17.4990  0.00  0.00     0.000 OA
ATOM     53  @S  IDS B   3     -17.357  53.809  17.3940  0.00  0.00     0.000 S
ENDBRANCH 42 49
BRANCH 45 54
ATOM     54 @CA  IDS B   3     -18.698  53.354  11.3420  0.00  0.00     0.000 C
ATOM     55   O  IDS B   3     -18.626  53.696  10.1920  0.00  0.00     0.000 OA
ATOM     56   O  IDS B   3     -19.479  52.499  11.6010  0.00  0.00     0.000 OA
ENDBRANCH 45 54
BRANCH 41 57
ATOM     57  O4  SGN B   4     -15.225  53.592  13.5240  0.00  0.00     0.000 O
BRANCH 57 61
ATOM     58  C1  SGN B   4     -14.056  49.654  13.8760  0.00  0.00     0.000 C
ATOM     59  C2  SGN B   4     -13.565  50.585  14.9720  0.00  0.00     0.000 C
ATOM     60  C3  SGN B   4     -14.367  51.883  14.9470  0.00  0.00     0.000 C
ATOM     61  C4  SGN B   4     -14.311  52.541  13.5630  0.00  0.00     0.000 C
ATOM     62  C5  SGN B   4     -14.734  51.498  12.5320  0.00  0.00     0.000 C
ATOM     63  O5  SGN B   4     -13.947  50.326  12.6330  0.00  0.00     0.000 O
ATOM     64   O  SGN B   4     -13.816  52.777  15.8920  0.00  0.00     0.000 O
ATOM     66  HD  SGN B   4     -13.520  53.530  15.5820  0.00  0.00     0.000 HD
BRANCH 59 68
ATOM     66   N  SGN B   4     -12.487  49.703  15.3700  0.00  0.00     0.000 N
ATOM     68  HD  SGN B   4     -13.082  49.740  14.7420  0.00  0.00     0.000 HD
ATOM     68 @NS  SGN B   4     -12.671  48.717  16.6680  0.00  0.00     0.000 S
ATOM     69   O  SGN B   4     -13.412  49.425  17.6690  0.00  0.00     0.000 OA
ATOM     70   O  SGN B   4     -13.392  47.570  16.1980  0.00  0.00     0.000 OA
ATOM     71   O  SGN B   4     -11.332  48.418  17.0780  0.00  0.00     0.000 OA
ENDBRANCH 59 68
BRANCH 62 72
ATOM     72   C  SGN B   4     -14.598  51.994  11.1000  0.00  0.00     0.000 C
ATOM     73   O  SGN B   4     -14.197  50.882  10.3560  0.00  0.00     0.000 O
ATOM     74  @S  SGN B   4     -14.523  50.574   8.8840  0.00  0.00     0.000 S
ATOM     75   O  SGN B   4     -14.036  51.654   8.1090  0.00  0.00     0.000 OA
ATOM     76   O  SGN B   4     -13.822  49.355   8.6170  0.00  0.00     0.000 OA
ATOM     77   O  SGN B   4     -15.942  50.481   8.8120  0.00  0.00     0.000 OA
ENDBRANCH 62 72
BRANCH 58 78
ATOM     78  O4  IDS B   5     -15.380  49.239  14.1470  0.00  0.00     0.000 O
BRANCH 78 82
ATOM     79  C1  IDS B   5     -18.319  47.593  14.9530  0.00  0.00     0.000 C
ATOM     80  C2  IDS B   5     -17.101  47.373  15.7970  0.00  0.00     0.000 C
ATOM     81  C3  IDS B   5     -15.849  47.029  14.9950  0.00  0.00     0.000 C
ATOM     82  C4  IDS B   5     -15.675  47.911  13.7750  0.00  0.00     0.000 C
ATOM     83  C5  IDS B   5     -16.967  47.897  13.0220  0.00  0.00     0.000 C
ATOM     84  O5  IDS B   5     -17.998  48.413  13.8430  0.00  0.00     0.000 O
ATOM     85   O  IDS B   5     -15.977  45.701  14.5470  0.00  0.00     0.000 O
ATOM     87  HD  IDS B   5     -15.812  46.413  14.0830  0.00  0.00     0.000 HD
BRANCH 80 87
ATOM     87   O  IDS B   5     -16.834  48.535  16.4770  0.00  0.00     0.000 O
ATOM     88  @S  IDS B   5     -16.939  48.764  17.9870  0.00  0.00     0.000 S
ATOM     89   O  IDS B   5     -16.163  47.730  18.5710  0.00  0.00     0.000 OA
ATOM     90   O  IDS B   5     -16.429  50.072  18.2070  0.00  0.00     0.000 OA
ATOM     91   O  IDS B   5     -18.321  48.670  18.3030  0.00  0.00     0.000 OA
ENDBRANCH 80 87
BRANCH 83 92
ATOM     92 @CA  IDS B   5     -16.895  48.590  11.6670  0.00  0.00     0.000 C
ATOM     93   O  IDS B   5     -16.265  48.090  10.7320  0.00  0.00     0.000 OA
ATOM     94   O  IDS B   5     -17.464  49.672  11.4820  0.00  0.00     0.000 OA
ENDBRANCH 83 92
BRANCH 79 95
ATOM     95  O4  SGN B   6     -18.843  46.367  14.5660  0.00  0.00     0.000 O
BRANCH 95 99
ATOM     96  C1  SGN B   6     -22.591  44.908  13.5470  0.00  0.00     0.000 C
ATOM     97  C2  SGN B   6     -21.951  45.860  12.5440  0.00  0.00     0.000 C
ATOM     98  C3  SGN B   6     -20.446  45.826  12.8080  0.00  0.00     0.000 C
ATOM     99  C4  SGN B   6     -20.221  46.393  14.2390  0.00  0.00     0.000 C
ATOM    100  C5  SGN B   6     -20.988  45.456  15.2150  0.00  0.00     0.000 C
ATOM    101  O5  SGN B   6     -22.366  45.360  14.8680  0.00  0.00     0.000 O
BRANCH 97 104
ATOM    102   N  SGN B   6     -23.316  45.726  12.0250  0.00  0.00     0.000 N
ATOM    104  HD  SGN B   6     -23.320  45.176  11.3570  0.00  0.00     0.000 HD
ATOM    104 @NS  SGN B   6     -23.605  46.254  10.4790  0.00  0.00     0.000 S
ATOM    105   O  SGN B   6     -22.352  46.731   9.9360  0.00  0.00     0.000 OA
ATOM    106   O  SGN B   6     -24.123  45.123   9.7440  0.00  0.00     0.000 OA
ATOM    107   O  SGN B   6     -24.569  47.325  10.5960  0.00  0.00     0.000 OA
ENDBRANCH 97 104
BRANCH 100 108
ATOM    108   C  SGN B   6     -20.951  45.847  16.6870  0.00  0.00     0.000 C
ATOM    109   O  SGN B   6     -22.255  46.143  17.1240  0.00  0.00     0.000 O
ATOM    110  @S  SGN B   6     -22.658  46.595  18.5740  0.00  0.00     0.000 S
ATOM    111   O  SGN B   6     -21.629  47.511  19.0050  0.00  0.00     0.000 OA
ATOM    112   O  SGN B   6     -23.954  47.243  18.4570  0.00  0.00     0.000 OA
ATOM    113   O  SGN B   6     -22.696  45.385  19.3650  0.00  0.00     0.000 OA
ENDBRANCH 100 108
ENDBRANCH 95 99
ENDBRANCH 79 95
ENDBRANCH 78 82
ENDBRANCH 58 78
ENDBRANCH 57 61
ENDBRANCH 41 57
ENDBRANCH 40 44
ENDBRANCH 20 40
ENDBRANCH 19 23
ENDBRANCH 1 19
TORSDOF 22
ENDMDL
MODEL 54
REMARK VINA RESULT:       0.4      4.789     13.639
ROOT
ATOM      1  C1  IDS B   1     -22.282  53.015  10.2480  0.00  0.00     0.000 C
ATOM      2  C2  IDS B   1     -23.427  53.815  10.8120  0.00  0.00     0.000 C
ATOM      3  C3  IDS B   1     -23.041  55.017  11.7070  0.00  0.00     0.000 C
ATOM      4  C4  IDS B   1     -21.640  55.644  11.3560  0.00  0.00     0.000 C
ATOM      5  C5  IDS B   1     -20.661  54.612  10.7440  0.00  0.00     0.000 C
ATOM      6  O5  IDS B   1     -21.300  53.887   9.7270  0.00  0.00     0.000 O
ATOM      7   O  IDS B   1     -23.076  54.567  13.0580  0.00  0.00     0.000 O
ATOM      9  HD  IDS B   1     -22.549  55.251  12.9940  0.00  0.00     0.000 HD
ATOM      9   O  IDS B   1     -21.852  56.661  10.4030  0.00  0.00     0.000 O
ATOM     11  HD  IDS B   1     -21.324  57.345  10.3400  0.00  0.00     0.000 HD
ENDROOT
BRANCH 2 11
ATOM     11   O  IDS B   1     -24.192  54.327   9.7770  0.00  0.00     0.000 O
ATOM     12  @S  IDS B   1     -25.562  53.768   9.3460  0.00  0.00     0.000 S
ATOM     13   O  IDS B   1     -25.510  52.377   9.7480  0.00  0.00     0.000 OA
ATOM     14   O  IDS B   1     -26.567  54.521  10.0750  0.00  0.00     0.000 OA
ATOM     15   O  IDS B   1     -25.639  53.968   7.9130  0.00  0.00     0.000 OA
ENDBRANCH 2 11
BRANCH 5 16
ATOM     16 @CA  IDS B   1     -19.331  55.155  10.2320  0.00  0.00     0.000 C
ATOM     17   O  IDS B   1     -18.257  54.748  10.6710  0.00  0.00     0.000 OA
ATOM     18   O  IDS B   1     -19.304  56.011   9.3510  0.00  0.00     0.000 OA
ENDBRANCH 5 16
BRANCH 1 19
ATOM     19  O4  SGN B   2     -21.750  52.221  11.2880  0.00  0.00     0.000 O
BRANCH 19 23
ATOM     20  C1  SGN B   2     -19.781  48.632  11.2660  0.00  0.00     0.000 C
ATOM     21  C2  SGN B   2     -19.482  49.632  10.1700  0.00  0.00     0.000 C
ATOM     22  C3  SGN B   2     -19.805  51.001  10.6490  0.00  0.00     0.000 C
ATOM     23  C4  SGN B   2     -21.297  50.976  10.8950  0.00  0.00     0.000 C
ATOM     24  C5  SGN B   2     -21.489  50.037  12.0350  0.00  0.00     0.000 C
ATOM     25  O5  SGN B   2     -21.146  48.758  11.6390  0.00  0.00     0.000 O
ATOM     26   O  SGN B   2     -19.493  51.921   9.6630  0.00  0.00     0.000 O
ATOM     28  HD  SGN B   2     -19.489  52.502   9.0210  0.00  0.00     0.000 HD
BRANCH 21 30
ATOM     28   N  SGN B   2     -19.193  48.408   9.4810  0.00  0.00     0.000 N
ATOM     30  HD  SGN B   2     -18.846  47.966  10.1400  0.00  0.00     0.000 HD
ATOM     30 @NS  SGN B   2     -17.775  48.324   8.6910  0.00  0.00     0.000 S
ATOM     31   O  SGN B   2     -17.007  49.487   8.9840  0.00  0.00     0.000 OA
ATOM     32   O  SGN B   2     -17.176  47.165   9.2120  0.00  0.00     0.000 OA
ATOM     33   O  SGN B   2     -18.093  48.255   7.3150  0.00  0.00     0.000 OA
ENDBRANCH 21 30
BRANCH 24 34
ATOM     34   C  SGN B   2     -22.871  49.963  12.5710  0.00  0.00     0.000 C
ATOM     35   O  SGN B   2     -23.634  49.251  11.6630  0.00  0.00     0.000 O
ATOM     36  @S  SGN B   2     -25.053  48.774  11.9480  0.00  0.00     0.000 S
ATOM     37   O  SGN B   2     -25.895  49.851  11.4650  0.00  0.00     0.000 OA
ATOM     38   O  SGN B   2     -25.228  47.535  11.2270  0.00  0.00     0.000 OA
ATOM     39   O  SGN B   2     -25.110  48.585  13.3910  0.00  0.00     0.000 OA
ENDBRANCH 24 34
BRANCH 20 40
ATOM     40  O4  IDS B   3     -18.937  48.835  12.3560  0.00  0.00     0.000 O
BRANCH 40 44
ATOM     41  C1  IDS B   3     -16.419  47.950  14.6340  0.00  0.00     0.000 C
ATOM     42  C2  IDS B   3     -16.444  47.345  13.2310  0.00  0.00     0.000 C
ATOM     43  C3  IDS B   3     -17.812  46.818  12.7570  0.00  0.00     0.000 C
ATOM     44  C4  IDS B   3     -18.932  47.735  13.2050  0.00  0.00     0.000 C
ATOM     45  C5  IDS B   3     -18.756  48.194  14.6610  0.00  0.00     0.000 C
ATOM     46  O5  IDS B   3     -17.531  48.812  14.8240  0.00  0.00     0.000 O
ATOM     47   O  IDS B   3     -18.038  45.539  13.3110  0.00  0.00     0.000 O
ATOM     49  HD  IDS B   3     -18.125  46.176  12.7310  0.00  0.00     0.000 HD
BRANCH 42 49
ATOM     49   O  IDS B   3     -16.040  48.325  12.3170  0.00  0.00     0.000 O
ATOM     50   O  IDS B   3     -13.773  47.929  12.8180  0.00  0.00     0.000 OA
ATOM     51   O  IDS B   3     -14.399  48.360  10.5770  0.00  0.00     0.000 OA
ATOM     52   O  IDS B   3     -14.524  50.071  12.1980  0.00  0.00     0.000 OA
ATOM     53  @S  IDS B   3     -14.598  48.689  11.9530  0.00  0.00     0.000 S
ENDBRANCH 42 49
BRANCH 45 54
ATOM     54 @CA  IDS B   3     -19.863  49.096  15.2010  0.00  0.00     0.000 C
ATOM     55   O  IDS B   3     -20.840  48.644  15.7350  0.00  0.00     0.000 OA
ATOM     56   O  IDS B   3     -19.785  50.277  15.1310  0.00  0.00     0.000 OA
ENDBRANCH 45 54
BRANCH 41 57
ATOM     57  O4  SGN B   4     -16.391  46.932  15.5790  0.00  0.00     0.000 O
BRANCH 57 61
ATOM     58  C1  SGN B   4     -14.698  49.356  18.4530  0.00  0.00     0.000 C
ATOM     59  C2  SGN B   4     -13.721  48.535  17.6280  0.00  0.00     0.000 C
ATOM     60  C3  SGN B   4     -14.417  48.003  16.3790  0.00  0.00     0.000 C
ATOM     61  C4  SGN B   4     -15.675  47.207  16.7440  0.00  0.00     0.000 C
ATOM     62  C5  SGN B   4     -16.540  48.086  17.6430  0.00  0.00     0.000 C
ATOM     63  O5  SGN B   4     -15.814  48.541  18.7690  0.00  0.00     0.000 O
ATOM     64   O  SGN B   4     -13.528  47.148  15.6910  0.00  0.00     0.000 O
ATOM     66  HD  SGN B   4     -13.786  46.328  15.5860  0.00  0.00     0.000 HD
BRANCH 59 68
ATOM     66   N  SGN B   4     -12.611  49.399  17.2810  0.00  0.00     0.000 N
ATOM     68  HD  SGN B   4     -12.855  48.582  17.1300  0.00  0.00     0.000 HD
ATOM     68 @NS  SGN B   4     -11.469  49.757  18.4020  0.00  0.00     0.000 S
ATOM     69   O  SGN B   4     -12.116  49.913  19.6710  0.00  0.00     0.000 OA
ATOM     70   O  SGN B   4     -10.559  48.648  18.4130  0.00  0.00     0.000 OA
ATOM     71   O  SGN B   4     -10.878  50.973  17.9300  0.00  0.00     0.000 OA
ENDBRANCH 59 68
BRANCH 62 72
ATOM     72   C  SGN B   4     -17.765  47.359  18.1780  0.00  0.00     0.000 C
ATOM     73   O  SGN B   4     -18.112  46.434  17.1910  0.00  0.00     0.000 O
ATOM     74  @S  SGN B   4     -18.769  45.056  17.3880  0.00  0.00     0.000 S
ATOM     75   O  SGN B   4     -19.998  45.266  18.0590  0.00  0.00     0.000 OA
ATOM     76   O  SGN B   4     -18.953  44.562  16.0570  0.00  0.00     0.000 OA
ATOM     77   O  SGN B   4     -17.862  44.305  18.1890  0.00  0.00     0.000 OA
ENDBRANCH 62 72
BRANCH 58 78
ATOM     78  O4  IDS B   5     -15.067  50.524  17.7490  0.00  0.00     0.000 O
BRANCH 78 82
ATOM     79  C1  IDS B   5     -15.419  53.741  16.5150  0.00  0.00     0.000 C
ATOM     80  C2  IDS B   5     -14.078  53.287  17.0050  0.00  0.00     0.000 C
ATOM     81  C3  IDS B   5     -14.112  52.646  18.3900  0.00  0.00     0.000 C
ATOM     82  C4  IDS B   5     -15.258  51.668  18.5530  0.00  0.00     0.000 C
ATOM     83  C5  IDS B   5     -16.508  52.362  18.1140  0.00  0.00     0.000 C
ATOM     84  O5  IDS B   5     -16.389  52.737  16.7550  0.00  0.00     0.000 O
ATOM     85   O  IDS B   5     -14.290  53.673  19.3350  0.00  0.00     0.000 O
ATOM     87  HD  IDS B   5     -14.756  52.951  19.2300  0.00  0.00     0.000 HD
BRANCH 80 87
ATOM     87   O  IDS B   5     -13.602  52.337  16.1360  0.00  0.00     0.000 O
ATOM     88  @S  IDS B   5     -12.689  52.568  14.9290  0.00  0.00     0.000 S
ATOM     89   O  IDS B   5     -11.577  53.286  15.4400  0.00  0.00     0.000 OA
ATOM     90   O  IDS B   5     -12.372  51.271  14.4420  0.00  0.00     0.000 OA
ATOM     91   O  IDS B   5     -13.454  53.317  13.9950  0.00  0.00     0.000 OA
ENDBRANCH 80 87
BRANCH 83 92
ATOM     92 @CA  IDS B   5     -17.780  51.570  18.3940  0.00  0.00     0.000 C
ATOM     93   O  IDS B   5     -17.801  50.686  19.2540  0.00  0.00     0.000 OA
ATOM     94   O  IDS B   5     -18.816  51.798  17.7590  0.00  0.00     0.000 OA
ENDBRANCH 83 92
BRANCH 79 95
ATOM     95  O4  SGN B   6     -15.750  54.946  17.1200  0.00  0.00     0.000 O
BRANCH 95 99
ATOM     96  C1  SGN B   6     -18.803  57.731  16.7500  0.00  0.00     0.000 C
ATOM     97  C2  SGN B   6     -19.241  56.280  16.9120  0.00  0.00     0.000 C
ATOM     98  C3  SGN B   6     -18.073  55.543  17.5680  0.00  0.00     0.000 C
ATOM     99  C4  SGN B   6     -16.884  55.590  16.5660  0.00  0.00     0.000 C
ATOM    100  C5  SGN B   6     -16.550  57.093  16.3430  0.00  0.00     0.000 C
ATOM    101  O5  SGN B   6     -17.688  57.816  15.8840  0.00  0.00     0.000 O
BRANCH 97 104
ATOM    102   N  SGN B   6     -20.508  57.005  16.7780  0.00  0.00     0.000 N
ATOM    104  HD  SGN B   6     -20.963  56.932  17.5110  0.00  0.00     0.000 HD
ATOM    104 @NS  SGN B   6     -21.910  56.119  16.8350  0.00  0.00     0.000 S
ATOM    105   O  SGN B   6     -21.546  54.736  17.0530  0.00  0.00     0.000 OA
ATOM    106   O  SGN B   6     -22.697  56.655  17.9210  0.00  0.00     0.000 OA
ATOM    107   O  SGN B   6     -22.548  56.298  15.5500  0.00  0.00     0.000 OA
ENDBRANCH 97 104
BRANCH 100 108
ATOM    108   C  SGN B   6     -15.434  57.390  15.3470  0.00  0.00     0.000 C
ATOM    109   O  SGN B   6     -15.952  57.349  14.0410  0.00  0.00     0.000 O
ATOM    110  @S  SGN B   6     -15.135  57.593  12.7200  0.00  0.00     0.000 S
ATOM    111   O  SGN B   6     -13.864  56.937  12.9130  0.00  0.00     0.000 OA
ATOM    112   O  SGN B   6     -15.905  56.991  11.6440  0.00  0.00     0.000 OA
ATOM    113   O  SGN B   6     -15.010  59.028  12.5970  0.00  0.00     0.000 OA
ENDBRANCH 100 108
ENDBRANCH 95 99
ENDBRANCH 79 95
ENDBRANCH 78 82
ENDBRANCH 58 78
ENDBRANCH 57 61
ENDBRANCH 41 57
ENDBRANCH 40 44
ENDBRANCH 20 40
ENDBRANCH 19 23
ENDBRANCH 1 19
TORSDOF 22
ENDMDL
MODEL 55
REMARK VINA RESULT:       0.5      4.908      7.287
ROOT
ATOM      1  C1  IDS B   1     -16.788  46.919  15.1630  0.00  0.00     0.000 C
ATOM      2  C2  IDS B   1     -15.462  47.546  15.5060  0.00  0.00     0.000 C
ATOM      3  C3  IDS B   1     -15.099  47.591  17.0090  0.00  0.00     0.000 C
ATOM      4  C4  IDS B   1     -15.750  46.432  17.8520  0.00  0.00     0.000 C
ATOM      5  C5  IDS B   1     -17.088  45.936  17.2530  0.00  0.00     0.000 C
ATOM      6  O5  IDS B   1     -16.944  45.709  15.8760  0.00  0.00     0.000 O
ATOM      7   O  IDS B   1     -15.496  48.867  17.5020  0.00  0.00     0.000 O
ATOM      9  HD  IDS B   1     -15.467  48.300  18.1560  0.00  0.00     0.000 HD
ATOM      9   O  IDS B   1     -14.848  45.347  17.8590  0.00  0.00     0.000 O
ATOM     11  HD  IDS B   1     -14.819  44.781  18.5130  0.00  0.00     0.000 HD
ENDROOT
BRANCH 2 11
ATOM     11   O  IDS B   1     -14.442  46.850  14.8760  0.00  0.00     0.000 O
ATOM     12  @S  IDS B   1     -13.474  47.465  13.8460  0.00  0.00     0.000 S
ATOM     13   O  IDS B   1     -14.231  48.557  13.2690  0.00  0.00     0.000 OA
ATOM     14   O  IDS B   1     -12.313  47.922  14.5870  0.00  0.00     0.000 OA
ATOM     15   O  IDS B   1     -13.163  46.401  12.9120  0.00  0.00     0.000 OA
ENDBRANCH 2 11
BRANCH 5 16
ATOM     16 @CA  IDS B   1     -17.720  44.714  17.9130  0.00  0.00     0.000 C
ATOM     17   O  IDS B   1     -18.425  43.932  17.2800  0.00  0.00     0.000 OA
ATOM     18   O  IDS B   1     -17.525  44.478  19.1030  0.00  0.00     0.000 OA
ENDBRANCH 5 16
BRANCH 1 19
ATOM     19  O4  SGN B   2     -17.806  47.838  15.5020  0.00  0.00     0.000 O
BRANCH 19 23
ATOM     20  C1  SGN B   2     -21.826  47.667  14.7490  0.00  0.00     0.000 C
ATOM     21  C2  SGN B   2     -21.333  47.335  16.1400  0.00  0.00     0.000 C
ATOM     22  C3  SGN B   2     -20.020  47.994  16.3690  0.00  0.00     0.000 C
ATOM     23  C4  SGN B   2     -19.094  47.359  15.3570  0.00  0.00     0.000 C
ATOM     24  C5  SGN B   2     -19.602  47.803  14.0290  0.00  0.00     0.000 C
ATOM     25  O5  SGN B   2     -20.849  47.251  13.8060  0.00  0.00     0.000 O
ATOM     26   O  SGN B   2     -19.587  47.725  17.6560  0.00  0.00     0.000 O
ATOM     28  HD  SGN B   2     -19.195  47.436  18.3720  0.00  0.00     0.000 HD
BRANCH 21 30
ATOM     28   N  SGN B   2     -22.458  46.447  16.1800  0.00  0.00     0.000 N
ATOM     30  HD  SGN B   2     -22.975  46.866  15.6270  0.00  0.00     0.000 HD
ATOM     30 @NS  SGN B   2     -23.545  46.689  17.3630  0.00  0.00     0.000 S
ATOM     31   O  SGN B   2     -23.219  47.885  18.0630  0.00  0.00     0.000 OA
ATOM     32   O  SGN B   2     -24.763  46.811  16.6720  0.00  0.00     0.000 OA
ATOM     33   O  SGN B   2     -23.462  45.561  18.2130  0.00  0.00     0.000 OA
ENDBRANCH 21 30
BRANCH 24 34
ATOM     34   C  SGN B   2     -18.756  47.433  12.8680  0.00  0.00     0.000 C
ATOM     35   O  SGN B   2     -19.053  48.309  11.8390  0.00  0.00     0.000 O
ATOM     36  @S  SGN B   2     -18.245  48.396  10.5490  0.00  0.00     0.000 S
ATOM     37   O  SGN B   2     -18.908  47.473   9.6500  0.00  0.00     0.000 OA
ATOM     38   O  SGN B   2     -18.304  49.772  10.1140  0.00  0.00     0.000 OA
ATOM     39   O  SGN B   2     -16.894  47.992  10.9170  0.00  0.00     0.000 OA
ENDBRANCH 24 34
BRANCH 20 40
ATOM     40  O4  IDS B   3     -22.090  49.032  14.6370  0.00  0.00     0.000 O
BRANCH 40 44
ATOM     41  C1  IDS B   3     -23.613  52.072  13.7760  0.00  0.00     0.000 C
ATOM     42  C2  IDS B   3     -23.416  51.691  15.2420  0.00  0.00     0.000 C
ATOM     43  C3  IDS B   3     -23.831  50.255  15.6190  0.00  0.00     0.000 C
ATOM     44  C4  IDS B   3     -23.452  49.277  14.5250  0.00  0.00     0.000 C
ATOM     45  C5  IDS B   3     -23.777  49.821  13.1250  0.00  0.00     0.000 C
ATOM     46  O5  IDS B   3     -23.149  51.035  12.9240  0.00  0.00     0.000 O
ATOM     47   O  IDS B   3     -25.231  50.203  15.7940  0.00  0.00     0.000 O
ATOM     49  HD  IDS B   3     -24.409  49.957  15.9130  0.00  0.00     0.000 HD
BRANCH 42 49
ATOM     49   O  IDS B   3     -22.060  51.825  15.5580  0.00  0.00     0.000 O
ATOM     50   O  IDS B   3     -22.410  54.012  16.3580  0.00  0.00     0.000 OA
ATOM     51   O  IDS B   3     -20.903  52.594  17.5060  0.00  0.00     0.000 OA
ATOM     52   O  IDS B   3     -20.374  53.398  15.3510  0.00  0.00     0.000 OA
ATOM     53  @S  IDS B   3     -21.399  53.027  16.2380  0.00  0.00     0.000 S
ENDBRANCH 42 49
BRANCH 45 54
ATOM     54 @CA  IDS B   3     -23.457  48.878  11.9670  0.00  0.00     0.000 C
ATOM     55   O  IDS B   3     -22.766  49.223  11.0460  0.00  0.00     0.000 OA
ATOM     56   O  IDS B   3     -23.862  47.764  11.9480  0.00  0.00     0.000 OA
ENDBRANCH 45 54
BRANCH 41 57
ATOM     57  O4  SGN B   4     -24.952  52.364  13.5460  0.00  0.00     0.000 O
BRANCH 57 61
ATOM     58  C1  SGN B   4     -27.268  54.519  10.9030  0.00  0.00     0.000 C
ATOM     59  C2  SGN B   4     -26.144  53.709  10.2800  0.00  0.00     0.000 C
ATOM     60  C3  SGN B   4     -25.631  52.679  11.2830  0.00  0.00     0.000 C
ATOM     61  C4  SGN B   4     -25.202  53.350  12.5930  0.00  0.00     0.000 C
ATOM     62  C5  SGN B   4     -26.366  54.208  13.0830  0.00  0.00     0.000 C
ATOM     63  O5  SGN B   4     -26.783  55.125  12.0890  0.00  0.00     0.000 O
ATOM     64   O  SGN B   4     -24.512  52.021  10.7280  0.00  0.00     0.000 O
ATOM     66  HD  SGN B   4     -23.767  52.092  11.1650  0.00  0.00     0.000 HD
BRANCH 59 68
ATOM     66   N  SGN B   4     -25.815  54.132   8.9350  0.00  0.00     0.000 N
ATOM     68  HD  SGN B   4     -26.037  54.504   9.6840  0.00  0.00     0.000 HD
ATOM     68 @NS  SGN B   4     -26.901  53.933   7.7230  0.00  0.00     0.000 S
ATOM     69   O  SGN B   4     -27.578  52.686   7.9260  0.00  0.00     0.000 OA
ATOM     70   O  SGN B   4     -27.809  55.039   7.8140  0.00  0.00     0.000 OA
ATOM     71   O  SGN B   4     -26.109  53.944   6.5300  0.00  0.00     0.000 OA
ENDBRANCH 59 68
BRANCH 62 72
ATOM     72   C  SGN B   4     -26.017  55.029  14.3150  0.00  0.00     0.000 C
ATOM     73   O  SGN B   4     -25.481  56.223  13.8300  0.00  0.00     0.000 O
ATOM     74  @S  SGN B   4     -25.565  57.618  14.4750  0.00  0.00     0.000 S
ATOM     75   O  SGN B   4     -24.985  57.522  15.7640  0.00  0.00     0.000 OA
ATOM     76   O  SGN B   4     -24.805  58.456  13.5990  0.00  0.00     0.000 OA
ATOM     77   O  SGN B   4     -26.953  57.927  14.5520  0.00  0.00     0.000 OA
ENDBRANCH 62 72
BRANCH 58 78
ATOM     78  O4  IDS B   5     -28.389  53.693  11.1420  0.00  0.00     0.000 O
BRANCH 78 82
ATOM     79  C1  IDS B   5     -31.526  52.814  12.3200  0.00  0.00     0.000 C
ATOM     80  C2  IDS B   5     -30.961  52.095  11.1330  0.00  0.00     0.000 C
ATOM     81  C3  IDS B   5     -30.432  53.024  10.0440  0.00  0.00     0.000 C
ATOM     82  C4  IDS B   5     -29.604  54.165  10.6000  0.00  0.00     0.000 C
ATOM     83  C5  IDS B   5     -30.399  54.809  11.6900  0.00  0.00     0.000 C
ATOM     84  O5  IDS B   5     -30.658  53.863  12.7100  0.00  0.00     0.000 O
ATOM     85   O  IDS B   5     -31.539  53.584   9.3810  0.00  0.00     0.000 O
ATOM     87  HD  IDS B   5     -30.868  53.991   9.7480  0.00  0.00     0.000 HD
BRANCH 80 87
ATOM     87   O  IDS B   5     -29.903  51.331  11.5570  0.00  0.00     0.000 O
ATOM     88  @S  IDS B   5     -29.900  49.822  11.8150  0.00  0.00     0.000 S
ATOM     89   O  IDS B   5     -30.402  49.244  10.6210  0.00  0.00     0.000 OA
ATOM     90   O  IDS B   5     -28.548  49.490  12.1000  0.00  0.00     0.000 OA
ATOM     91   O  IDS B   5     -30.748  49.613  12.9350  0.00  0.00     0.000 OA
ENDBRANCH 80 87
BRANCH 83 92
ATOM     92 @CA  IDS B   5     -29.779  56.094  12.2250  0.00  0.00     0.000 C
ATOM     93   O  IDS B   5     -29.636  56.274  13.4370  0.00  0.00     0.000 OA
ATOM     94   O  IDS B   5     -29.410  56.985  11.4500  0.00  0.00     0.000 OA
ENDBRANCH 83 92
BRANCH 79 95
ATOM     95  O4  SGN B   6     -32.802  53.273  12.0210  0.00  0.00     0.000 O
BRANCH 95 99
ATOM     96  C1  SGN B   6     -35.675  55.475  14.0470  0.00  0.00     0.000 C
ATOM     97  C2  SGN B   6     -34.597  56.283  13.3340  0.00  0.00     0.000 C
ATOM     98  C3  SGN B   6     -34.019  55.375  12.2480  0.00  0.00     0.000 C
ATOM     99  C4  SGN B   6     -33.340  54.176  12.9700  0.00  0.00     0.000 C
ATOM    100  C5  SGN B   6     -34.456  53.453  13.7760  0.00  0.00     0.000 C
ATOM    101  O5  SGN B   6     -35.107  54.344  14.6770  0.00  0.00     0.000 O
BRANCH 97 104
ATOM    102   N  SGN B   6     -34.133  57.500  14.0060  0.00  0.00     0.000 N
ATOM    104  HD  SGN B   6     -34.734  57.769  14.5690  0.00  0.00     0.000 HD
ATOM    104 @NS  SGN B   6     -34.993  58.896  13.7460  0.00  0.00     0.000 S
ATOM    105   O  SGN B   6     -36.106  58.571  12.8810  0.00  0.00     0.000 OA
ATOM    106   O  SGN B   6     -35.426  59.364  15.0420  0.00  0.00     0.000 OA
ATOM    107   O  SGN B   6     -34.079  59.814  13.1040  0.00  0.00     0.000 OA
ENDBRANCH 97 104
BRANCH 100 108
ATOM    108   C  SGN B   6     -34.011  52.260  14.6140  0.00  0.00     0.000 C
ATOM    109   O  SGN B   6     -34.195  52.552  15.9770  0.00  0.00     0.000 O
ATOM    110  @S  SGN B   6     -33.856  51.595  17.1770  0.00  0.00     0.000 S
ATOM    111   O  SGN B   6     -32.608  50.957  16.8350  0.00  0.00     0.000 OA
ATOM    112   O  SGN B   6     -33.735  52.440  18.3550  0.00  0.00     0.000 OA
ATOM    113   O  SGN B   6     -34.957  50.662  17.2560  0.00  0.00     0.000 OA
ENDBRANCH 100 108
ENDBRANCH 95 99
ENDBRANCH 79 95
ENDBRANCH 78 82
ENDBRANCH 58 78
ENDBRANCH 57 61
ENDBRANCH 41 57
ENDBRANCH 40 44
ENDBRANCH 20 40
ENDBRANCH 19 23
ENDBRANCH 1 19
TORSDOF 22
ENDMDL
MODEL 56
REMARK VINA RESULT:       0.6      3.934      8.250
ROOT
ATOM      1  C1  IDS B   1     -15.500  58.775  12.7500  0.00  0.00     0.000 C
ATOM      2  C2  IDS B   1     -15.576  59.212  11.3100  0.00  0.00     0.000 C
ATOM      3  C3  IDS B   1     -16.846  59.998  10.9040  0.00  0.00     0.000 C
ATOM      4  C4  IDS B   1     -17.495  60.807  12.0880  0.00  0.00     0.000 C
ATOM      5  C5  IDS B   1     -17.225  60.164  13.4700  0.00  0.00     0.000 C
ATOM      6  O5  IDS B   1     -15.865  59.846  13.5960  0.00  0.00     0.000 O
ATOM      7   O  IDS B   1     -17.768  59.059  10.3600  0.00  0.00     0.000 O
ATOM      9  HD  IDS B   1     -18.199  59.749  10.6570  0.00  0.00     0.000 HD
ATOM      9   O  IDS B   1     -16.924  62.097  12.0900  0.00  0.00     0.000 O
ATOM     11  HD  IDS B   1     -17.356  62.787  12.3870  0.00  0.00     0.000 HD
ENDROOT
BRANCH 2 11
ATOM     11   O  IDS B   1     -14.497  60.030  11.0150  0.00  0.00     0.000 O
ATOM     12  @S  IDS B   1     -13.623  59.898   9.7530  0.00  0.00     0.000 S
ATOM     13   O  IDS B   1     -13.744  58.500   9.3920  0.00  0.00     0.000 OA
ATOM     14   O  IDS B   1     -14.196  60.783   8.7550  0.00  0.00     0.000 OA
ATOM     15   O  IDS B   1     -12.287  60.292  10.1540  0.00  0.00     0.000 OA
ENDBRANCH 2 11
BRANCH 5 16
ATOM     16 @CA  IDS B   1     -17.685  60.953  14.6920  0.00  0.00     0.000 C
ATOM     17   O  IDS B   1     -18.874  61.179  14.9030  0.00  0.00     0.000 OA
ATOM     18   O  IDS B   1     -16.867  61.374  15.5060  0.00  0.00     0.000 OA
ENDBRANCH 5 16
BRANCH 1 19
ATOM     19  O4  SGN B   2     -16.376  57.679  12.9200  0.00  0.00     0.000 O
BRANCH 19 23
ATOM     20  C1  SGN B   2     -16.193  54.312  15.2410  0.00  0.00     0.000 C
ATOM     21  C2  SGN B   2     -16.555  55.627  15.8950  0.00  0.00     0.000 C
ATOM     22  C3  SGN B   2     -17.127  56.545  14.8760  0.00  0.00     0.000 C
ATOM     23  C4  SGN B   2     -15.998  56.779  13.8990  0.00  0.00     0.000 C
ATOM     24  C5  SGN B   2     -15.766  55.461  13.2460  0.00  0.00     0.000 C
ATOM     25  O5  SGN B   2     -15.283  54.565  14.1790  0.00  0.00     0.000 O
ATOM     26   O  SGN B   2     -17.497  57.734  15.4810  0.00  0.00     0.000 O
ATOM     28  HD  SGN B   2     -17.569  58.545  15.7750  0.00  0.00     0.000 HD
BRANCH 21 30
ATOM     28   N  SGN B   2     -16.118  54.743  16.9360  0.00  0.00     0.000 N
ATOM     30  HD  SGN B   2     -16.659  54.084  16.7830  0.00  0.00     0.000 HD
ATOM     30 @NS  SGN B   2     -16.789  54.941  18.4020  0.00  0.00     0.000 S
ATOM     31   O  SGN B   2     -17.835  55.904  18.3120  0.00  0.00     0.000 OA
ATOM     32   O  SGN B   2     -17.289  53.665  18.7120  0.00  0.00     0.000 OA
ATOM     33   O  SGN B   2     -15.754  55.390  19.2540  0.00  0.00     0.000 OA
ENDBRANCH 21 30
BRANCH 24 34
ATOM     34   C  SGN B   2     -14.799  55.470  12.1200  0.00  0.00     0.000 C
ATOM     35   O  SGN B   2     -13.531  55.581  12.6610  0.00  0.00     0.000 O
ATOM     36  @S  SGN B   2     -12.253  55.412  11.8470  0.00  0.00     0.000 S
ATOM     37   O  SGN B   2     -11.933  56.753  11.4020  0.00  0.00     0.000 OA
ATOM     38   O  SGN B   2     -11.266  54.847  12.7380  0.00  0.00     0.000 OA
ATOM     39   O  SGN B   2     -12.606  54.500  10.7680  0.00  0.00     0.000 OA
ENDBRANCH 24 34
BRANCH 20 40
ATOM     40  O4  IDS B   3     -17.339  53.663  14.7820  0.00  0.00     0.000 O
BRANCH 40 44
ATOM     41  C1  IDS B   3     -19.830  51.212  14.4790  0.00  0.00     0.000 C
ATOM     42  C2  IDS B   3     -19.288  51.601  15.8530  0.00  0.00     0.000 C
ATOM     43  C3  IDS B   3     -17.753  51.683  15.9640  0.00  0.00     0.000 C
ATOM     44  C4  IDS B   3     -17.149  52.289  14.7130  0.00  0.00     0.000 C
ATOM     45  C5  IDS B   3     -17.792  51.731  13.4340  0.00  0.00     0.000 C
ATOM     46  O5  IDS B   3     -19.158  51.932  13.4550  0.00  0.00     0.000 O
ATOM     47   O  IDS B   3     -17.226  50.382  16.1260  0.00  0.00     0.000 O
ATOM     49  HD  IDS B   3     -17.239  51.245  16.1990  0.00  0.00     0.000 HD
BRANCH 42 49
ATOM     49   O  IDS B   3     -19.793  52.861  16.1900  0.00  0.00     0.000 O
ATOM     50   O  IDS B   3     -21.515  51.885  17.4670  0.00  0.00     0.000 OA
ATOM     51   O  IDS B   3     -20.466  53.852  18.2610  0.00  0.00     0.000 OA
ATOM     52   O  IDS B   3     -21.843  53.927  16.3460  0.00  0.00     0.000 OA
ATOM     53  @S  IDS B   3     -20.971  53.148  17.1250  0.00  0.00     0.000 S
ENDBRANCH 42 49
BRANCH 45 54
ATOM     54 @CA  IDS B   3     -17.214  52.267  12.1250  0.00  0.00     0.000 C
ATOM     55   O  IDS B   3     -17.868  52.943  11.3770  0.00  0.00     0.000 OA
ATOM     56   O  IDS B   3     -16.090  52.053  11.8140  0.00  0.00     0.000 OA
ENDBRANCH 45 54
BRANCH 41 57
ATOM     57  O4  SGN B   4     -19.713  49.839  14.3030  0.00  0.00     0.000 O
BRANCH 57 61
ATOM     58  C1  SGN B   4     -23.448  49.603  12.5740  0.00  0.00     0.000 C
ATOM     59  C2  SGN B   4     -23.369  49.165  14.0270  0.00  0.00     0.000 C
ATOM     60  C3  SGN B   4     -22.065  49.661  14.6460  0.00  0.00     0.000 C
ATOM     61  C4  SGN B   4     -20.853  49.188  13.8340  0.00  0.00     0.000 C
ATOM     62  C5  SGN B   4     -21.076  49.597  12.3810  0.00  0.00     0.000 C
ATOM     63  O5  SGN B   4     -22.310  49.105  11.8920  0.00  0.00     0.000 O
ATOM     64   O  SGN B   4     -21.958  49.143  15.9560  0.00  0.00     0.000 O
ATOM     66  HD  SGN B   4     -21.270  48.641  16.1160  0.00  0.00     0.000 HD
BRANCH 59 68
ATOM     66   N  SGN B   4     -24.531  48.342  14.2950  0.00  0.00     0.000 N
ATOM     68  HD  SGN B   4     -24.033  48.542  13.6150  0.00  0.00     0.000 HD
ATOM     68 @NS  SGN B   4     -25.997  49.041  14.5180  0.00  0.00     0.000 S
ATOM     69   O  SGN B   4     -25.809  50.258  15.2510  0.00  0.00     0.000 OA
ATOM     70   O  SGN B   4     -26.521  49.297  13.2070  0.00  0.00     0.000 OA
ATOM     71   O  SGN B   4     -26.747  48.066  15.2490  0.00  0.00     0.000 OA
ENDBRANCH 59 68
BRANCH 62 72
ATOM     72   C  SGN B   4     -19.996  49.071  11.4470  0.00  0.00     0.000 C
ATOM     73   O  SGN B   4     -19.579  47.859  12.0020  0.00  0.00     0.000 O
ATOM     74  @S  SGN B   4     -19.058  46.619  11.2560  0.00  0.00     0.000 S
ATOM     75   O  SGN B   4     -17.925  47.020  10.5080  0.00  0.00     0.000 OA
ATOM     76   O  SGN B   4     -18.723  45.697  12.2990  0.00  0.00     0.000 OA
ATOM     77   O  SGN B   4     -20.122  46.203  10.4040  0.00  0.00     0.000 OA
ENDBRANCH 62 72
BRANCH 58 78
ATOM     78  O4  IDS B   5     -23.549  51.010  12.4940  0.00  0.00     0.000 O
BRANCH 78 82
ATOM     79  C1  IDS B   5     -24.219  54.355  11.8960  0.00  0.00     0.000 C
ATOM     80  C2  IDS B   5     -25.285  53.490  12.4950  0.00  0.00     0.000 C
ATOM     81  C3  IDS B   5     -25.517  52.185  11.7390  0.00  0.00     0.000 C
ATOM     82  C4  IDS B   5     -24.225  51.495  11.3540  0.00  0.00     0.000 C
ATOM     83  C5  IDS B   5     -23.358  52.507  10.6750  0.00  0.00     0.000 C
ATOM     84  O5  IDS B   5     -23.086  53.571  11.5680  0.00  0.00     0.000 O
ATOM     85   O  IDS B   5     -26.207  52.492  10.5510  0.00  0.00     0.000 O
ATOM     87  HD  IDS B   5     -25.468  52.050  10.6470  0.00  0.00     0.000 HD
BRANCH 80 87
ATOM     87   O  IDS B   5     -24.900  53.153  13.7680  0.00  0.00     0.000 O
ATOM     88  @S  IDS B   5     -25.396  53.774  15.0760  0.00  0.00     0.000 S
ATOM     89   O  IDS B   5     -26.810  53.686  15.0120  0.00  0.00     0.000 OA
ATOM     90   O  IDS B   5     -24.810  52.995  16.1100  0.00  0.00     0.000 OA
ATOM     91   O  IDS B   5     -24.920  55.113  15.0810  0.00  0.00     0.000 OA
ENDBRANCH 80 87
BRANCH 83 92
ATOM     92 @CA  IDS B   5     -22.094  51.919  10.0600  0.00  0.00     0.000 C
ATOM     93   O  IDS B   5     -20.980  52.356  10.3600  0.00  0.00     0.000 OA
ATOM     94   O  IDS B   5     -22.164  50.994   9.2430  0.00  0.00     0.000 OA
ENDBRANCH 83 92
BRANCH 79 95
ATOM     95  O4  SGN B   6     -24.730  55.026  10.7930  0.00  0.00     0.000 O
BRANCH 95 99
ATOM     96  C1  SGN B   6     -23.449  58.168   8.4050  0.00  0.00     0.000 C
ATOM     97  C2  SGN B   6     -22.376  57.172   8.8280  0.00  0.00     0.000 C
ATOM     98  C3  SGN B   6     -23.102  55.875   9.1870  0.00  0.00     0.000 C
ATOM     99  C4  SGN B   6     -24.002  56.181  10.4180  0.00  0.00     0.000 C
ATOM    100  C5  SGN B   6     -25.003  57.285   9.9730  0.00  0.00     0.000 C
ATOM    101  O5  SGN B   6     -24.323  58.438   9.4840  0.00  0.00     0.000 O
BRANCH 97 104
ATOM    102   N  SGN B   6     -21.657  57.889   7.7710  0.00  0.00     0.000 N
ATOM    104  HD  SGN B   6     -21.173  57.331   7.3190  0.00  0.00     0.000 HD
ATOM    104 @NS  SGN B   6     -20.001  57.924   7.8560  0.00  0.00     0.000 S
ATOM    105   O  SGN B   6     -19.604  57.157   9.0170  0.00  0.00     0.000 OA
ATOM    106   O  SGN B   6     -19.508  57.347   6.6260  0.00  0.00     0.000 OA
ATOM    107   O  SGN B   6     -19.637  59.316   7.9960  0.00  0.00     0.000 OA
ENDBRANCH 97 104
BRANCH 100 108
ATOM    108   C  SGN B   6     -25.966  57.788  11.0430  0.00  0.00     0.000 C
ATOM    109   O  SGN B   6     -27.063  56.914  11.1310  0.00  0.00     0.000 O
ATOM    110  @S  SGN B   6     -28.287  57.070  12.1050  0.00  0.00     0.000 S
ATOM    111   O  SGN B   6     -28.604  58.478  12.1210  0.00  0.00     0.000 OA
ATOM    112   O  SGN B   6     -29.365  56.273  11.5410  0.00  0.00     0.000 OA
ATOM    113   O  SGN B   6     -27.831  56.585  13.3880  0.00  0.00     0.000 OA
ENDBRANCH 100 108
ENDBRANCH 95 99
ENDBRANCH 79 95
ENDBRANCH 78 82
ENDBRANCH 58 78
ENDBRANCH 57 61
ENDBRANCH 41 57
ENDBRANCH 40 44
ENDBRANCH 20 40
ENDBRANCH 19 23
ENDBRANCH 1 19
TORSDOF 22
ENDMDL
MODEL 57
REMARK VINA RESULT:       0.9      5.270     14.143
ROOT
ATOM      1  C1  IDS B   1     -23.305  52.267  11.9870  0.00  0.00     0.000 C
ATOM      2  C2  IDS B   1     -23.965  53.169  12.9970  0.00  0.00     0.000 C
ATOM      3  C3  IDS B   1     -23.362  54.587  13.1400  0.00  0.00     0.000 C
ATOM      4  C4  IDS B   1     -22.676  55.118  11.8270  0.00  0.00     0.000 C
ATOM      5  C5  IDS B   1     -22.121  53.977  10.9390  0.00  0.00     0.000 C
ATOM      6  O5  IDS B   1     -23.090  52.975  10.7830  0.00  0.00     0.000 O
ATOM      7   O  IDS B   1     -22.435  54.545  14.2200  0.00  0.00     0.000 O
ATOM      9  HD  IDS B   1     -22.227  55.194  13.6860  0.00  0.00     0.000 HD
ATOM      9   O  IDS B   1     -23.652  55.811  11.0830  0.00  0.00     0.000 O
ATOM     11  HD  IDS B   1     -23.445  56.460  10.5480  0.00  0.00     0.000 HD
ENDROOT
BRANCH 2 11
ATOM     11   O  IDS B   1     -25.299  53.342  12.6660  0.00  0.00     0.000 O
ATOM     12  @S  IDS B   1     -26.479  53.021  13.6040  0.00  0.00     0.000 S
ATOM     13   O  IDS B   1     -25.954  51.993  14.4810  0.00  0.00     0.000 OA
ATOM     14   O  IDS B   1     -26.795  54.249  14.3110  0.00  0.00     0.000 OA
ATOM     15   O  IDS B   1     -27.557  52.572  12.7450  0.00  0.00     0.000 OA
ENDBRANCH 2 11
BRANCH 5 16
ATOM     16 @CA  IDS B   1     -21.572  54.380   9.5740  0.00  0.00     0.000 C
ATOM     17   O  IDS B   1     -21.147  53.546   8.7790  0.00  0.00     0.000 OA
ATOM     18   O  IDS B   1     -21.556  55.560   9.2320  0.00  0.00     0.000 OA
ENDBRANCH 5 16
BRANCH 1 19
ATOM     19  O4  SGN B   2     -22.082  51.820  12.5340  0.00  0.00     0.000 O
BRANCH 19 23
ATOM     20  C1  SGN B   2     -20.130  48.228  12.3260  0.00  0.00     0.000 C
ATOM     21  C2  SGN B   2     -19.951  49.219  11.1970  0.00  0.00     0.000 C
ATOM     22  C3  SGN B   2     -20.220  50.592  11.6970  0.00  0.00     0.000 C
ATOM     23  C4  SGN B   2     -21.675  50.571  12.1040  0.00  0.00     0.000 C
ATOM     24  C5  SGN B   2     -21.743  49.641  13.2660  0.00  0.00     0.000 C
ATOM     25  O5  SGN B   2     -21.446  48.359  12.8450  0.00  0.00     0.000 O
ATOM     26   O  SGN B   2     -20.016  51.503  10.6750  0.00  0.00     0.000 O
ATOM     28  HD  SGN B   2     -20.082  52.080  10.0320  0.00  0.00     0.000 HD
BRANCH 21 30
ATOM     28   N  SGN B   2     -19.792  48.033  10.4050  0.00  0.00     0.000 N
ATOM     30  HD  SGN B   2     -19.460  47.514  11.0130  0.00  0.00     0.000 HD
ATOM     30 @NS  SGN B   2     -18.417  47.897   9.5510  0.00  0.00     0.000 S
ATOM     31   O  SGN B   2     -17.542  48.967   9.8960  0.00  0.00     0.000 OA
ATOM     32   O  SGN B   2     -17.899  46.656   9.9560  0.00  0.00     0.000 OA
ATOM     33   O  SGN B   2     -18.790  47.962   8.1880  0.00  0.00     0.000 OA
ENDBRANCH 21 30
BRANCH 24 34
ATOM     34   C  SGN B   2     -23.058  49.573  13.9500  0.00  0.00     0.000 C
ATOM     35   O  SGN B   2     -23.845  48.675  13.2530  0.00  0.00     0.000 O
ATOM     36  @S  SGN B   2     -25.190  48.167  13.7590  0.00  0.00     0.000 S
ATOM     37   O  SGN B   2     -26.155  49.094  13.2020  0.00  0.00     0.000 OA
ATOM     38   O  SGN B   2     -25.336  46.816  13.2690  0.00  0.00     0.000 OA
ATOM     39   O  SGN B   2     -25.095  48.218  15.2120  0.00  0.00     0.000 OA
ENDBRANCH 24 34
BRANCH 20 40
ATOM     40  O4  IDS B   3     -19.171  48.438  13.3160  0.00  0.00     0.000 O
BRANCH 40 44
ATOM     41  C1  IDS B   3     -17.100  47.208  15.8660  0.00  0.00     0.000 C
ATOM     42  C2  IDS B   3     -17.694  46.261  14.8260  0.00  0.00     0.000 C
ATOM     43  C3  IDS B   3     -19.199  46.441  14.5430  0.00  0.00     0.000 C
ATOM     44  C4  IDS B   3     -19.577  47.909  14.5340  0.00  0.00     0.000 C
ATOM     45  C5  IDS B   3     -18.921  48.681  15.6900  0.00  0.00     0.000 C
ATOM     46  O5  IDS B   3     -17.548  48.537  15.6450  0.00  0.00     0.000 O
ATOM     47   O  IDS B   3     -19.945  45.797  15.5540  0.00  0.00     0.000 O
ATOM     49  HD  IDS B   3     -19.797  46.119  14.7640  0.00  0.00     0.000 HD
BRANCH 42 49
ATOM     49   O  IDS B   3     -17.022  46.453  13.6140  0.00  0.00     0.000 O
ATOM     50   O  IDS B   3     -15.365  44.896  14.2300  0.00  0.00     0.000 OA
ATOM     51   O  IDS B   3     -16.121  44.946  11.9880  0.00  0.00     0.000 OA
ATOM     52   O  IDS B   3     -14.852  46.736  12.8570  0.00  0.00     0.000 OA
ATOM     53  @S  IDS B   3     -15.768  45.710  13.1430  0.00  0.00     0.000 S
ENDBRANCH 42 49
BRANCH 45 54
ATOM     54 @CA  IDS B   3     -19.280  50.163  15.7720  0.00  0.00     0.000 C
ATOM     55   O  IDS B   3     -18.694  50.991  15.1270  0.00  0.00     0.000 OA
ATOM     56   O  IDS B   3     -20.166  50.546  16.4610  0.00  0.00     0.000 OA
ENDBRANCH 45 54
BRANCH 41 57
ATOM     57  O4  SGN B   4     -17.425  46.762  17.1410  0.00  0.00     0.000 O
BRANCH 57 61
ATOM     58  C1  SGN B   4     -14.424  48.800  19.1000  0.00  0.00     0.000 C
ATOM     59  C2  SGN B   4     -14.004  47.507  18.4220  0.00  0.00     0.000 C
ATOM     60  C3  SGN B   4     -15.079  47.070  17.4310  0.00  0.00     0.000 C
ATOM     61  C4  SGN B   4     -16.445  46.946  18.1160  0.00  0.00     0.000 C
ATOM     62  C5  SGN B   4     -16.727  48.260  18.8390  0.00  0.00     0.000 C
ATOM     63  O5  SGN B   4     -15.677  48.593  19.7280  0.00  0.00     0.000 O
ATOM     64   O  SGN B   4     -14.725  45.809  16.9020  0.00  0.00     0.000 O
ATOM     66  HD  SGN B   4     -15.285  45.163  17.0410  0.00  0.00     0.000 HD
BRANCH 59 68
ATOM     66   N  SGN B   4     -12.754  47.824  17.7640  0.00  0.00     0.000 N
ATOM     68  HD  SGN B   4     -13.304  47.156  17.8010  0.00  0.00     0.000 HD
ATOM     68 @NS  SGN B   4     -11.354  47.831  18.6190  0.00  0.00     0.000 S
ATOM     69   O  SGN B   4     -11.625  48.368  19.9200  0.00  0.00     0.000 OA
ATOM     70   O  SGN B   4     -10.929  46.463  18.6980  0.00  0.00     0.000 OA
ATOM     71   O  SGN B   4     -10.473  48.657  17.8510  0.00  0.00     0.000 OA
ENDBRANCH 59 68
BRANCH 62 72
ATOM     72   C  SGN B   4     -18.003  48.217  19.6660  0.00  0.00     0.000 C
ATOM     73   O  SGN B   4     -19.035  48.003  18.7510  0.00  0.00     0.000 O
ATOM     74  @S  SGN B   4     -20.354  47.246  18.9870  0.00  0.00     0.000 S
ATOM     75   O  SGN B   4     -21.023  47.887  20.0590  0.00  0.00     0.000 OA
ATOM     76   O  SGN B   4     -21.061  47.378  17.7490  0.00  0.00     0.000 OA
ATOM     77   O  SGN B   4     -19.982  45.915  19.3290  0.00  0.00     0.000 OA
ENDBRANCH 62 72
BRANCH 58 78
ATOM     78  O4  IDS B   5     -14.463  49.853  18.1580  0.00  0.00     0.000 O
BRANCH 78 82
ATOM     79  C1  IDS B   5     -14.295  52.740  16.2520  0.00  0.00     0.000 C
ATOM     80  C2  IDS B   5     -13.053  51.929  16.4640  0.00  0.00     0.000 C
ATOM     81  C3  IDS B   5     -12.790  51.577  17.9260  0.00  0.00     0.000 C
ATOM     82  C4  IDS B   5     -14.036  51.106  18.6470  0.00  0.00     0.000 C
ATOM     83  C5  IDS B   5     -15.111  52.114  18.3930  0.00  0.00     0.000 C
ATOM     84  O5  IDS B   5     -15.364  52.195  17.0030  0.00  0.00     0.000 O
ATOM     85   O  IDS B   5     -12.335  52.740  18.5740  0.00  0.00     0.000 O
ATOM     87  HD  IDS B   5     -12.993  52.222  18.7950  0.00  0.00     0.000 HD
BRANCH 80 87
ATOM     87   O  IDS B   5     -13.192  50.744  15.7850  0.00  0.00     0.000 O
ATOM     88  @S  IDS B   5     -12.352  50.256  14.6030  0.00  0.00     0.000 S
ATOM     89   O  IDS B   5     -11.007  50.350  15.0430  0.00  0.00     0.000 OA
ATOM     90   O  IDS B   5     -12.792  48.929  14.3500  0.00  0.00     0.000 OA
ATOM     91   O  IDS B   5     -12.647  51.131  13.5230  0.00  0.00     0.000 OA
ENDBRANCH 80 87
BRANCH 83 92
ATOM     92 @CA  IDS B   5     -16.378  51.879  19.2080  0.00  0.00     0.000 C
ATOM     93   O  IDS B   5     -16.327  51.724  20.4300  0.00  0.00     0.000 OA
ATOM     94   O  IDS B   5     -17.483  51.833  18.6540  0.00  0.00     0.000 OA
ENDBRANCH 83 92
BRANCH 79 95
ATOM     95  O4  SGN B   6     -14.044  54.066  16.5780  0.00  0.00     0.000 O
BRANCH 95 99
ATOM     96  C1  SGN B   6     -15.517  57.355  14.5220  0.00  0.00     0.000 C
ATOM     97  C2  SGN B   6     -15.766  57.343  16.0260  0.00  0.00     0.000 C
ATOM     98  C3  SGN B   6     -14.718  56.410  16.6340  0.00  0.00     0.000 C
ATOM     99  C4  SGN B   6     -14.998  54.985  16.0770  0.00  0.00     0.000 C
ATOM    100  C5  SGN B   6     -14.847  55.074  14.5310  0.00  0.00     0.000 C
ATOM    101  O5  SGN B   6     -15.712  56.063  13.9800  0.00  0.00     0.000 O
BRANCH 97 104
ATOM    102   N  SGN B   6     -17.058  58.036  15.9930  0.00  0.00     0.000 N
ATOM    104  HD  SGN B   6     -16.982  58.771  15.5410  0.00  0.00     0.000 HD
ATOM    104 @NS  SGN B   6     -17.155  59.515  16.7370  0.00  0.00     0.000 S
ATOM    105   O  SGN B   6     -15.843  59.831  17.2590  0.00  0.00     0.000 OA
ATOM    106   O  SGN B   6     -17.583  60.459  15.7310  0.00  0.00     0.000 OA
ATOM    107   O  SGN B   6     -18.122  59.365  17.8010  0.00  0.00     0.000 OA
ENDBRANCH 97 104
BRANCH 100 108
ATOM    108   C  SGN B   6     -15.127  53.793  13.7550  0.00  0.00     0.000 C
ATOM    109   O  SGN B   6     -16.150  54.027  12.8200  0.00  0.00     0.000 O
ATOM    110  @S  SGN B   6     -16.745  52.968  11.8230  0.00  0.00     0.000 S
ATOM    111   O  SGN B   6     -16.846  51.736  12.5680  0.00  0.00     0.000 OA
ATOM    112   O  SGN B   6     -18.048  53.472  11.4180  0.00  0.00     0.000 OA
ATOM    113   O  SGN B   6     -15.802  52.885  10.7310  0.00  0.00     0.000 OA
ENDBRANCH 100 108
ENDBRANCH 95 99
ENDBRANCH 79 95
ENDBRANCH 78 82
ENDBRANCH 58 78
ENDBRANCH 57 61
ENDBRANCH 41 57
ENDBRANCH 40 44
ENDBRANCH 20 40
ENDBRANCH 19 23
ENDBRANCH 1 19
TORSDOF 22
ENDMDL
MODEL 58
REMARK VINA RESULT:       1.0      4.945     12.980
ROOT
ATOM      1  C1  IDS B   1     -23.869  53.264  10.4240  0.00  0.00     0.000 C
ATOM      2  C2  IDS B   1     -25.346  53.531  10.5480  0.00  0.00     0.000 C
ATOM      3  C3  IDS B   1     -25.746  54.756  11.4050  0.00  0.00     0.000 C
ATOM      4  C4  IDS B   1     -24.658  55.893  11.4300  0.00  0.00     0.000 C
ATOM      5  C5  IDS B   1     -23.222  55.350  11.2320  0.00  0.00     0.000 C
ATOM      6  O5  IDS B   1     -23.187  54.469  10.1420  0.00  0.00     0.000 O
ATOM      7   O  IDS B   1     -26.020  54.280  12.7190  0.00  0.00     0.000 O
ATOM      9  HD  IDS B   1     -25.804  55.118  12.7540  0.00  0.00     0.000 HD
ATOM      9   O  IDS B   1     -24.938  56.779  10.3700  0.00  0.00     0.000 O
ATOM     11  HD  IDS B   1     -24.722  57.616  10.4040  0.00  0.00     0.000 HD
ENDROOT
BRANCH 2 11
ATOM     11   O  IDS B   1     -25.890  53.738   9.2900  0.00  0.00     0.000 O
ATOM     12  @S  IDS B   1     -26.787  52.726   8.5510  0.00  0.00     0.000 S
ATOM     13   O  IDS B   1     -26.385  51.444   9.0960  0.00  0.00     0.000 OA
ATOM     14   O  IDS B   1     -28.159  53.066   8.8820  0.00  0.00     0.000 OA
ATOM     15   O  IDS B   1     -26.490  52.889   7.1420  0.00  0.00     0.000 OA
ENDBRANCH 2 11
BRANCH 5 16
ATOM     16 @CA  IDS B   1     -22.114  56.389  11.0910  0.00  0.00     0.000 C
ATOM     17   O  IDS B   1     -21.378  56.678  12.0320  0.00  0.00     0.000 OA
ATOM     18   O  IDS B   1     -21.922  56.954  10.0180  0.00  0.00     0.000 OA
ENDBRANCH 5 16
BRANCH 1 19
ATOM     19  O4  SGN B   2     -23.421  52.706  11.6420  0.00  0.00     0.000 O
BRANCH 19 23
ATOM     20  C1  SGN B   2     -24.259  49.097  13.3830  0.00  0.00     0.000 C
ATOM     21  C2  SGN B   2     -24.346  49.215  11.8770  0.00  0.00     0.000 C
ATOM     22  C3  SGN B   2     -23.483  50.335  11.4180  0.00  0.00     0.000 C
ATOM     23  C4  SGN B   2     -24.095  51.568  12.0420  0.00  0.00     0.000 C
ATOM     24  C5  SGN B   2     -23.891  51.406  13.5090  0.00  0.00     0.000 C
ATOM     25  O5  SGN B   2     -24.641  50.337  13.9610  0.00  0.00     0.000 O
ATOM     26   O  SGN B   2     -23.529  50.418  10.0380  0.00  0.00     0.000 O
ATOM     28  HD  SGN B   2     -23.670  50.622   9.2080  0.00  0.00     0.000 HD
BRANCH 21 30
ATOM     28   N  SGN B   2     -23.995  47.832  11.7340  0.00  0.00     0.000 N
ATOM     30  HD  SGN B   2     -23.656  47.865  10.9380  0.00  0.00     0.000 HD
ATOM     30 @NS  SGN B   2     -25.152  46.830  11.1890  0.00  0.00     0.000 S
ATOM     31   O  SGN B   2     -26.291  47.595  10.8050  0.00  0.00     0.000 OA
ATOM     32   O  SGN B   2     -24.553  46.205  10.0830  0.00  0.00     0.000 OA
ATOM     33   O  SGN B   2     -25.460  45.961  12.2610  0.00  0.00     0.000 OA
ENDBRANCH 21 30
BRANCH 24 34
ATOM     34   C  SGN B   2     -24.273  52.577  14.3370  0.00  0.00     0.000 C
ATOM     35   O  SGN B   2     -25.346  52.200  15.1240  0.00  0.00     0.000 O
ATOM     36  @S  SGN B   2     -25.893  53.052  16.2630  0.00  0.00     0.000 S
ATOM     37   O  SGN B   2     -26.925  53.858  15.6420  0.00  0.00     0.000 OA
ATOM     38   O  SGN B   2     -26.396  52.137  17.2610  0.00  0.00     0.000 OA
ATOM     39   O  SGN B   2     -24.754  53.821  16.7460  0.00  0.00     0.000 OA
ENDBRANCH 24 34
BRANCH 20 40
ATOM     40  O4  IDS B   3     -22.970  48.732  13.7700  0.00  0.00     0.000 O
BRANCH 40 44
ATOM     41  C1  IDS B   3     -20.388  46.761  15.0930  0.00  0.00     0.000 C
ATOM     42  C2  IDS B   3     -21.523  46.120  14.2970  0.00  0.00     0.000 C
ATOM     43  C3  IDS B   3     -22.945  46.573  14.6800  0.00  0.00     0.000 C
ATOM     44  C4  IDS B   3     -22.978  48.057  14.9840  0.00  0.00     0.000 C
ATOM     45  C5  IDS B   3     -21.781  48.499  15.8400  0.00  0.00     0.000 C
ATOM     46  O5  IDS B   3     -20.595  48.160  15.2180  0.00  0.00     0.000 O
ATOM     47   O  IDS B   3     -23.363  45.875  15.8340  0.00  0.00     0.000 O
ATOM     49  HD  IDS B   3     -23.465  46.309  15.0920  0.00  0.00     0.000 HD
BRANCH 42 49
ATOM     49   O  IDS B   3     -21.344  46.426  12.9430  0.00  0.00     0.000 O
ATOM     50   O  IDS B   3     -19.990  44.522  12.6400  0.00  0.00     0.000 OA
ATOM     51   O  IDS B   3     -21.517  45.132  10.9380  0.00  0.00     0.000 OA
ATOM     52   O  IDS B   3     -19.631  46.479  11.3860  0.00  0.00     0.000 OA
ATOM     53  @S  IDS B   3     -20.579  45.587  11.9150  0.00  0.00     0.000 S
ENDBRANCH 42 49
BRANCH 45 54
ATOM     54 @CA  IDS B   3     -21.758  49.977  16.2200  0.00  0.00     0.000 C
ATOM     55   O  IDS B   3     -22.362  50.393  17.1720  0.00  0.00     0.000 OA
ATOM     56   O  IDS B   3     -21.123  50.764  15.5990  0.00  0.00     0.000 OA
ENDBRANCH 45 54
BRANCH 41 57
ATOM     57  O4  SGN B   4     -20.284  46.144  16.3340  0.00  0.00     0.000 O
BRANCH 57 61
ATOM     58  C1  SGN B   4     -16.455  47.477  17.0800  0.00  0.00     0.000 C
ATOM     59  C2  SGN B   4     -16.558  46.212  16.2450  0.00  0.00     0.000 C
ATOM     60  C3  SGN B   4     -17.982  46.053  15.7210  0.00  0.00     0.000 C
ATOM     61  C4  SGN B   4     -18.998  46.071  16.8690  0.00  0.00     0.000 C
ATOM     62  C5  SGN B   4     -18.749  47.330  17.6950  0.00  0.00     0.000 C
ATOM     63  O5  SGN B   4     -17.405  47.402  18.1300  0.00  0.00     0.000 O
ATOM     64   O  SGN B   4     -18.084  44.814  15.0500  0.00  0.00     0.000 O
ATOM     66  HD  SGN B   4     -18.662  44.252  15.3660  0.00  0.00     0.000 HD
BRANCH 59 68
ATOM     66   N  SGN B   4     -15.299  45.496  16.2470  0.00  0.00     0.000 N
ATOM     68  HD  SGN B   4     -15.756  45.985  16.7970  0.00  0.00     0.000 HD
ATOM     68 @NS  SGN B   4     -14.010  46.100  15.4320  0.00  0.00     0.000 S
ATOM     69   O  SGN B   4     -14.485  46.692  14.2160  0.00  0.00     0.000 OA
ATOM     70   O  SGN B   4     -13.417  47.081  16.2930  0.00  0.00     0.000 OA
ATOM     71   O  SGN B   4     -13.172  44.963  15.2020  0.00  0.00     0.000 OA
ENDBRANCH 59 68
BRANCH 62 72
ATOM     72   C  SGN B   4     -19.616  47.400  18.9430  0.00  0.00     0.000 C
ATOM     73   O  SGN B   4     -20.824  46.791  18.5940  0.00  0.00     0.000 O
ATOM     74  @S  SGN B   4     -21.771  45.997  19.5110  0.00  0.00     0.000 S
ATOM     75   O  SGN B   4     -22.156  46.858  20.5670  0.00  0.00     0.000 OA
ATOM     76   O  SGN B   4     -22.873  45.652  18.6630  0.00  0.00     0.000 OA
ATOM     77   O  SGN B   4     -21.012  44.892  19.9910  0.00  0.00     0.000 OA
ENDBRANCH 62 72
BRANCH 58 78
ATOM     78  O4  IDS B   5     -16.645  48.616  16.2650  0.00  0.00     0.000 O
BRANCH 78 82
ATOM     79  C1  IDS B   5     -16.806  51.684  14.6670  0.00  0.00     0.000 C
ATOM     80  C2  IDS B   5     -15.705  50.732  14.3140  0.00  0.00     0.000 C
ATOM     81  C3  IDS B   5     -14.959  50.176  15.5240  0.00  0.00     0.000 C
ATOM     82  C4  IDS B   5     -15.891  49.748  16.6400  0.00  0.00     0.000 C
ATOM     83  C5  IDS B   5     -16.827  50.884  16.9040  0.00  0.00     0.000 C
ATOM     84  O5  IDS B   5     -17.575  51.162  15.7360  0.00  0.00     0.000 O
ATOM     85   O  IDS B   5     -14.132  51.198  16.0260  0.00  0.00     0.000 O
ATOM     87  HD  IDS B   5     -14.722  50.725  16.4480  0.00  0.00     0.000 HD
BRANCH 80 87
ATOM     87   O  IDS B   5     -16.259  49.660  13.6580  0.00  0.00     0.000 O
ATOM     88  @S  IDS B   5     -16.065  49.280  12.1880  0.00  0.00     0.000 S
ATOM     89   O  IDS B   5     -14.660  49.225  12.0030  0.00  0.00     0.000 OA
ATOM     90   O  IDS B   5     -16.724  48.031  12.0310  0.00  0.00     0.000 OA
ATOM     91   O  IDS B   5     -16.687  50.310  11.4310  0.00  0.00     0.000 OA
ENDBRANCH 80 87
BRANCH 83 92
ATOM     92 @CA  IDS B   5     -17.708  50.679  18.1310  0.00  0.00     0.000 C
ATOM     93   O  IDS B   5     -17.215  50.406  19.2280  0.00  0.00     0.000 OA
ATOM     94   O  IDS B   5     -18.938  50.779  18.0460  0.00  0.00     0.000 OA
ENDBRANCH 83 92
BRANCH 79 95
ATOM     95  O4  SGN B   6     -16.265  52.928  14.9670  0.00  0.00     0.000 O
BRANCH 95 99
ATOM     96  C1  SGN B   6     -17.733  56.738  15.7000  0.00  0.00     0.000 C
ATOM     97  C2  SGN B   6     -18.183  55.652  16.6710  0.00  0.00     0.000 C
ATOM     98  C3  SGN B   6     -17.149  54.530  16.5800  0.00  0.00     0.000 C
ATOM     99  C4  SGN B   6     -17.220  53.959  15.1350  0.00  0.00     0.000 C
ATOM    100  C5  SGN B   6     -16.868  55.132  14.1760  0.00  0.00     0.000 C
ATOM    101  O5  SGN B   6     -17.735  56.245  14.3740  0.00  0.00     0.000 O
BRANCH 97 104
ATOM    102   N  SGN B   6     -19.357  55.435  17.5210  0.00  0.00     0.000 N
ATOM    104  HD  SGN B   6     -19.995  55.968  17.2780  0.00  0.00     0.000 HD
ATOM    104 @NS  SGN B   6     -19.846  56.689  18.4910  0.00  0.00     0.000 S
ATOM    105   O  SGN B   6     -18.965  57.808  18.2390  0.00  0.00     0.000 OA
ATOM    106   O  SGN B   6     -21.215  56.982  18.1340  0.00  0.00     0.000 OA
ATOM    107   O  SGN B   6     -19.719  56.216  19.8510  0.00  0.00     0.000 OA
ENDBRANCH 97 104
BRANCH 100 108
ATOM    108   C  SGN B   6     -16.922  54.819  12.6850  0.00  0.00     0.000 C
ATOM    109   O  SGN B   6     -18.253  54.561  12.3110  0.00  0.00     0.000 O
ATOM    110  @S  SGN B   6     -18.746  54.191  10.8660  0.00  0.00     0.000 S
ATOM    111   O  SGN B   6     -17.757  53.287  10.3290  0.00  0.00     0.000 OA
ATOM    112   O  SGN B   6     -20.043  53.552  11.0250  0.00  0.00     0.000 OA
ATOM    113   O  SGN B   6     -18.812  55.441  10.1420  0.00  0.00     0.000 OA
ENDBRANCH 100 108
ENDBRANCH 95 99
ENDBRANCH 79 95
ENDBRANCH 78 82
ENDBRANCH 58 78
ENDBRANCH 57 61
ENDBRANCH 41 57
ENDBRANCH 40 44
ENDBRANCH 20 40
ENDBRANCH 19 23
ENDBRANCH 1 19
TORSDOF 22
ENDMDL
MODEL 59
REMARK VINA RESULT:       1.2      3.848      7.806
ROOT
ATOM      1  C1  IDS B   1     -15.365  58.744  14.3150  0.00  0.00     0.000 C
ATOM      2  C2  IDS B   1     -14.578  58.887  13.0390  0.00  0.00     0.000 C
ATOM      3  C3  IDS B   1     -15.318  59.549  11.8520  0.00  0.00     0.000 C
ATOM      4  C4  IDS B   1     -16.440  60.561  12.2920  0.00  0.00     0.000 C
ATOM      5  C5  IDS B   1     -17.055  60.210  13.6690  0.00  0.00     0.000 C
ATOM      6  O5  IDS B   1     -16.038  59.954  14.6000  0.00  0.00     0.000 O
ATOM      7   O  IDS B   1     -15.860  58.500  11.0550  0.00  0.00     0.000 O
ATOM      9  HD  IDS B   1     -16.315  59.226  10.9270  0.00  0.00     0.000 HD
ATOM      9   O  IDS B   1     -15.850  61.838  12.3930  0.00  0.00     0.000 O
ATOM     11  HD  IDS B   1     -16.306  62.563  12.2650  0.00  0.00     0.000 HD
ENDROOT
BRANCH 2 11
ATOM     11   O  IDS B   1     -13.447  59.654  13.2720  0.00  0.00     0.000 O
ATOM     12  @S  IDS B   1     -12.001  59.137  13.1440  0.00  0.00     0.000 S
ATOM     13   O  IDS B   1     -12.119  57.714  13.3880  0.00  0.00     0.000 OA
ATOM     14   O  IDS B   1     -11.571  59.437  11.7900  0.00  0.00     0.000 OA
ATOM     15   O  IDS B   1     -11.236  59.849  14.1480  0.00  0.00     0.000 OA
ENDBRANCH 2 11
BRANCH 5 16
ATOM     16 @CA  IDS B   1     -18.045  61.215  14.2510  0.00  0.00     0.000 C
ATOM     17   O  IDS B   1     -18.422  62.193  13.6090  0.00  0.00     0.000 OA
ATOM     18   O  IDS B   1     -18.500  61.059  15.3810  0.00  0.00     0.000 OA
ENDBRANCH 5 16
BRANCH 1 19
ATOM     19  O4  SGN B   2     -16.284  57.685  14.1450  0.00  0.00     0.000 O
BRANCH 19 23
ATOM     20  C1  SGN B   2     -17.547  54.727  16.6770  0.00  0.00     0.000 C
ATOM     21  C2  SGN B   2     -18.246  56.068  16.7210  0.00  0.00     0.000 C
ATOM     22  C3  SGN B   2     -18.074  56.758  15.4160  0.00  0.00     0.000 C
ATOM     23  C4  SGN B   2     -16.584  56.985  15.2980  0.00  0.00     0.000 C
ATOM     24  C5  SGN B   2     -15.989  55.625  15.1780  0.00  0.00     0.000 C
ATOM     25  O5  SGN B   2     -16.179  54.935  16.3590  0.00  0.00     0.000 O
ATOM     26   O  SGN B   2     -18.747  57.967  15.4400  0.00  0.00     0.000 O
ATOM     28  HD  SGN B   2     -18.991  58.797  15.4730  0.00  0.00     0.000 HD
BRANCH 21 30
ATOM     28   N  SGN B   2     -19.591  55.713  17.0680  0.00  0.00     0.000 N
ATOM     30  HD  SGN B   2     -19.958  56.493  16.9810  0.00  0.00     0.000 HD
ATOM     30 @NS  SGN B   2     -19.971  55.721  18.6470  0.00  0.00     0.000 S
ATOM     31   O  SGN B   2     -18.877  56.250  19.3900  0.00  0.00     0.000 OA
ATOM     32   O  SGN B   2     -21.094  56.564  18.7120  0.00  0.00     0.000 OA
ATOM     33   O  SGN B   2     -20.225  54.375  19.0000  0.00  0.00     0.000 OA
ENDBRANCH 21 30
BRANCH 24 34
ATOM     34   C  SGN B   2     -14.534  55.590  14.8900  0.00  0.00     0.000 C
ATOM     35   O  SGN B   2     -13.911  54.979  15.9630  0.00  0.00     0.000 O
ATOM     36  @S  SGN B   2     -12.444  54.562  15.9570  0.00  0.00     0.000 S
ATOM     37   O  SGN B   2     -11.745  55.711  16.4970  0.00  0.00     0.000 OA
ATOM     38   O  SGN B   2     -12.345  53.383  16.7850  0.00  0.00     0.000 OA
ATOM     39   O  SGN B   2     -12.132  54.284  14.5620  0.00  0.00     0.000 OA
ENDBRANCH 24 34
BRANCH 20 40
ATOM     40  O4  IDS B   3     -18.161  53.887  15.7490  0.00  0.00     0.000 O
BRANCH 40 44
ATOM     41  C1  IDS B   3     -19.672  51.114  14.2220  0.00  0.00     0.000 C
ATOM     42  C2  IDS B   3     -20.259  51.711  15.4990  0.00  0.00     0.000 C
ATOM     43  C3  IDS B   3     -19.247  52.003  16.6240  0.00  0.00     0.000 C
ATOM     44  C4  IDS B   3     -17.951  52.550  16.0600  0.00  0.00     0.000 C
ATOM     45  C5  IDS B   3     -17.498  51.783  14.8080  0.00  0.00     0.000 C
ATOM     46  O5  IDS B   3     -18.489  51.804  13.8460  0.00  0.00     0.000 O
ATOM     47   O  IDS B   3     -18.959  50.807  17.3170  0.00  0.00     0.000 O
ATOM     49  HD  IDS B   3     -19.038  51.664  17.2170  0.00  0.00     0.000 HD
BRANCH 42 49
ATOM     49   O  IDS B   3     -20.881  52.922  15.1790  0.00  0.00     0.000 O
ATOM     50   O  IDS B   3     -22.902  52.199  16.1470  0.00  0.00     0.000 OA
ATOM     51   O  IDS B   3     -22.229  54.450  16.4330  0.00  0.00     0.000 OA
ATOM     52   O  IDS B   3     -22.893  53.665  14.3080  0.00  0.00     0.000 OA
ATOM     53  @S  IDS B   3     -22.310  53.335  15.5430  0.00  0.00     0.000 S
ENDBRANCH 42 49
BRANCH 45 54
ATOM     54 @CA  IDS B   3     -16.179  52.250  14.1960  0.00  0.00     0.000 C
ATOM     55   O  IDS B   3     -15.133  52.108  14.7700  0.00  0.00     0.000 OA
ATOM     56   O  IDS B   3     -16.140  52.751  13.1220  0.00  0.00     0.000 OA
ENDBRANCH 45 54
BRANCH 41 57
ATOM     57  O4  SGN B   4     -19.437  49.756  14.4070  0.00  0.00     0.000 O
BRANCH 57 61
ATOM     58  C1  SGN B   4     -22.201  48.746  11.5200  0.00  0.00     0.000 C
ATOM     59  C2  SGN B   4     -22.354  48.033  12.8520  0.00  0.00     0.000 C
ATOM     60  C3  SGN B   4     -21.549  48.762  13.9240  0.00  0.00     0.000 C
ATOM     61  C4  SGN B   4     -20.079  48.903  13.5110  0.00  0.00     0.000 C
ATOM     62  C5  SGN B   4     -20.042  49.544  12.1260  0.00  0.00     0.000 C
ATOM     63  O5  SGN B   4     -20.822  48.811  11.2000  0.00  0.00     0.000 O
ATOM     64   O  SGN B   4     -21.609  48.017  15.1230  0.00  0.00     0.000 O
ATOM     66  HD  SGN B   4     -20.853  47.738  15.4420  0.00  0.00     0.000 HD
BRANCH 59 68
ATOM     66   N  SGN B   4     -23.143  46.848  12.5870  0.00  0.00     0.000 N
ATOM     68  HD  SGN B   4     -22.606  47.368  12.1500  0.00  0.00     0.000 HD
ATOM     68 @NS  SGN B   4     -24.771  46.965  12.4230  0.00  0.00     0.000 S
ATOM     69   O  SGN B   4     -25.249  47.938  13.3610  0.00  0.00     0.000 OA
ATOM     70   O  SGN B   4     -25.006  47.385  11.0720  0.00  0.00     0.000 OA
ATOM     71   O  SGN B   4     -25.252  45.646  12.7000  0.00  0.00     0.000 OA
ENDBRANCH 59 68
BRANCH 62 72
ATOM     72   C  SGN B   4     -18.637  49.622  11.5490  0.00  0.00     0.000 C
ATOM     73   O  SGN B   4     -18.467  48.446  10.8160  0.00  0.00     0.000 O
ATOM     74  @S  SGN B   4     -17.617  48.247   9.5490  0.00  0.00     0.000 S
ATOM     75   O  SGN B   4     -16.285  48.601   9.8740  0.00  0.00     0.000 OA
ATOM     76   O  SGN B   4     -17.751  46.853   9.2510  0.00  0.00     0.000 OA
ATOM     77   O  SGN B   4     -18.164  49.127   8.5720  0.00  0.00     0.000 OA
ENDBRANCH 62 72
BRANCH 58 78
ATOM     78  O4  IDS B   5     -22.798  50.025  11.5800  0.00  0.00     0.000 O
BRANCH 78 82
ATOM     79  C1  IDS B   5     -24.481  53.030  11.2130  0.00  0.00     0.000 C
ATOM     80  C2  IDS B   5     -25.266  51.776  11.4520  0.00  0.00     0.000 C
ATOM     81  C3  IDS B   5     -24.884  50.625  10.5250  0.00  0.00     0.000 C
ATOM     82  C4  IDS B   5     -23.385  50.467  10.3750  0.00  0.00     0.000 C
ATOM     83  C5  IDS B   5     -22.823  51.809  10.0290  0.00  0.00     0.000 C
ATOM     84  O5  IDS B   5     -23.106  52.723  11.0710  0.00  0.00     0.000 O
ATOM     85   O  IDS B   5     -25.413  50.906   9.2510  0.00  0.00     0.000 O
ATOM     87  HD  IDS B   5     -24.596  50.714   9.4650  0.00  0.00     0.000 HD
BRANCH 80 87
ATOM     87   O  IDS B   5     -25.021  51.354  12.7350  0.00  0.00     0.000 O
ATOM     88  @S  IDS B   5     -26.019  51.307  13.8950  0.00  0.00     0.000 S
ATOM     89   O  IDS B   5     -27.125  50.571  13.3990  0.00  0.00     0.000 OA
ATOM     90   O  IDS B   5     -25.327  50.672  14.9620  0.00  0.00     0.000 OA
ATOM     91   O  IDS B   5     -26.337  52.659  14.1950  0.00  0.00     0.000 OA
ENDBRANCH 80 87
BRANCH 83 92
ATOM     92 @CA  IDS B   5     -21.344  51.778   9.6610  0.00  0.00     0.000 C
ATOM     93   O  IDS B   5     -20.920  50.999   8.8040  0.00  0.00     0.000 OA
ATOM     94   O  IDS B   5     -20.541  52.533  10.2210  0.00  0.00     0.000 OA
ENDBRANCH 83 92
BRANCH 79 95
ATOM     95  O4  SGN B   6     -24.990  53.691  10.1020  0.00  0.00     0.000 O
BRANCH 95 99
ATOM     96  C1  SGN B   6     -24.876  57.557   8.6030  0.00  0.00     0.000 C
ATOM     97  C2  SGN B   6     -23.524  56.889   8.8270  0.00  0.00     0.000 C
ATOM     98  C3  SGN B   6     -23.778  55.381   8.8280  0.00  0.00     0.000 C
ATOM     99  C4  SGN B   6     -24.688  55.073  10.0510  0.00  0.00     0.000 C
ATOM    100  C5  SGN B   6     -26.008  55.869   9.8350  0.00  0.00     0.000 C
ATOM    101  O5  SGN B   6     -25.755  57.261   9.6710  0.00  0.00     0.000 O
BRANCH 97 104
ATOM    102   N  SGN B   6     -22.945  58.223   9.0120  0.00  0.00     0.000 N
ATOM    104  HD  SGN B   6     -22.969  58.657   8.2630  0.00  0.00     0.000 HD
ATOM    104 @NS  SGN B   6     -21.554  58.579   8.1810  0.00  0.00     0.000 S
ATOM    105   O  SGN B   6     -21.217  57.426   7.3760  0.00  0.00     0.000 OA
ATOM    106   O  SGN B   6     -21.838  59.744   7.3750  0.00  0.00     0.000 OA
ATOM    107   O  SGN B   6     -20.544  58.834   9.1840  0.00  0.00     0.000 OA
ENDBRANCH 97 104
BRANCH 100 108
ATOM    108   C  SGN B   6     -27.046  55.759  10.9450  0.00  0.00     0.000 C
ATOM    109   O  SGN B   6     -28.077  54.896  10.5360  0.00  0.00     0.000 O
ATOM    110  @S  SGN B   6     -29.346  54.514  11.3810  0.00  0.00     0.000 S
ATOM    111   O  SGN B   6     -29.768  55.730  12.0340  0.00  0.00     0.000 OA
ATOM    112   O  SGN B   6     -30.339  54.028  10.4350  0.00  0.00     0.000 OA
ATOM    113   O  SGN B   6     -28.906  53.502  12.3140  0.00  0.00     0.000 OA
ENDBRANCH 100 108
ENDBRANCH 95 99
ENDBRANCH 79 95
ENDBRANCH 78 82
ENDBRANCH 58 78
ENDBRANCH 57 61
ENDBRANCH 41 57
ENDBRANCH 40 44
ENDBRANCH 20 40
ENDBRANCH 19 23
ENDBRANCH 1 19
TORSDOF 22
ENDMDL
MODEL 60
REMARK VINA RESULT:       1.2      4.952     13.073
ROOT
ATOM      1  C1  IDS B   1     -23.385  53.410  10.5880  0.00  0.00     0.000 C
ATOM      2  C2  IDS B   1     -23.977  54.677  11.1490  0.00  0.00     0.000 C
ATOM      3  C3  IDS B   1     -23.082  55.937  11.0740  0.00  0.00     0.000 C
ATOM      4  C4  IDS B   1     -22.060  55.918   9.8770  0.00  0.00     0.000 C
ATOM      5  C5  IDS B   1     -21.650  54.483   9.4660  0.00  0.00     0.000 C
ATOM      6  O5  IDS B   1     -22.788  53.675   9.3350  0.00  0.00     0.000 O
ATOM      7   O  IDS B   1     -22.406  56.049  12.3220  0.00  0.00     0.000 O
ATOM      9  HD  IDS B   1     -21.952  56.460  11.7090  0.00  0.00     0.000 HD
ATOM      9   O  IDS B   1     -22.686  56.525   8.7690  0.00  0.00     0.000 O
ATOM     11  HD  IDS B   1     -22.232  56.936   8.1560  0.00  0.00     0.000 HD
ENDROOT
BRANCH 2 11
ATOM     11   O  IDS B   1     -25.146  54.985  10.4710  0.00  0.00     0.000 O
ATOM     12  @S  IDS B   1     -26.012  56.229  10.7490  0.00  0.00     0.000 S
ATOM     13   O  IDS B   1     -25.735  56.541  12.1360  0.00  0.00     0.000 OA
ATOM     14   O  IDS B   1     -25.555  57.266   9.8420  0.00  0.00     0.000 OA
ATOM     15   O  IDS B   1     -27.380  55.822  10.4950  0.00  0.00     0.000 OA
ENDBRANCH 2 11
BRANCH 5 16
ATOM     16 @CA  IDS B   1     -20.780  54.353   8.2190  0.00  0.00     0.000 C
ATOM     17   O  IDS B   1     -20.828  55.180   7.3110  0.00  0.00     0.000 OA
ATOM     18   O  IDS B   1     -19.994  53.416   8.1010  0.00  0.00     0.000 OA
ENDBRANCH 5 16
BRANCH 1 19
ATOM     19  O4  SGN B   2     -22.429  52.930  11.5100  0.00  0.00     0.000 O
BRANCH 19 23
ATOM     20  C1  SGN B   2     -21.474  49.162  12.7940  0.00  0.00     0.000 C
ATOM     21  C2  SGN B   2     -21.707  49.388  11.3160  0.00  0.00     0.000 C
ATOM     22  C3  SGN B   2     -21.457  50.817  10.9900  0.00  0.00     0.000 C
ATOM     23  C4  SGN B   2     -22.505  51.575  11.7730  0.00  0.00     0.000 C
ATOM     24  C5  SGN B   2     -22.151  51.365  13.2050  0.00  0.00     0.000 C
ATOM     25  O5  SGN B   2     -22.321  50.034  13.5290  0.00  0.00     0.000 O
ATOM     26   O  SGN B   2     -21.630  51.017   9.6320  0.00  0.00     0.000 O
ATOM     28  HD  SGN B   2     -21.903  51.225   8.8370  0.00  0.00     0.000 HD
BRANCH 21 30
ATOM     28   N  SGN B   2     -22.111  48.015  11.3990  0.00  0.00     0.000 N
ATOM     30  HD  SGN B   2     -21.555  47.752  12.0080  0.00  0.00     0.000 HD
ATOM     30 @NS  SGN B   2     -21.429  46.982  10.3460  0.00  0.00     0.000 S
ATOM     31   O  SGN B   2     -20.409  47.660   9.6190  0.00  0.00     0.000 OA
ATOM     32   O  SGN B   2     -20.895  45.977  11.1690  0.00  0.00     0.000 OA
ATOM     33   O  SGN B   2     -22.466  46.550   9.4870  0.00  0.00     0.000 OA
ENDBRANCH 21 30
BRANCH 24 34
ATOM     34   C  SGN B   2     -22.950  52.150  14.1790  0.00  0.00     0.000 C
ATOM     35   O  SGN B   2     -22.190  53.240  14.5610  0.00  0.00     0.000 O
ATOM     36  @S  SGN B   2     -22.737  54.399  15.3850  0.00  0.00     0.000 S
ATOM     37   O  SGN B   2     -22.468  54.019  16.7580  0.00  0.00     0.000 OA
ATOM     38   O  SGN B   2     -22.025  55.583  14.9630  0.00  0.00     0.000 OA
ATOM     39   O  SGN B   2     -24.155  54.464  15.0590  0.00  0.00     0.000 OA
ENDBRANCH 24 34
BRANCH 20 40
ATOM     40  O4  IDS B   3     -20.133  49.369  13.1150  0.00  0.00     0.000 O
BRANCH 40 44
ATOM     41  C1  IDS B   3     -16.985  48.331  14.2630  0.00  0.00     0.000 C
ATOM     42  C2  IDS B   3     -17.971  47.319  13.6840  0.00  0.00     0.000 C
ATOM     43  C3  IDS B   3     -19.417  47.423  14.2070  0.00  0.00     0.000 C
ATOM     44  C4  IDS B   3     -19.831  48.871  14.3750  0.00  0.00     0.000 C
ATOM     45  C5  IDS B   3     -18.723  49.716  15.0240  0.00  0.00     0.000 C
ATOM     46  O5  IDS B   3     -17.559  49.630  14.2860  0.00  0.00     0.000 O
ATOM     47   O  IDS B   3     -19.507  46.787  15.4650  0.00  0.00     0.000 O
ATOM     49  HD  IDS B   3     -19.800  47.084  14.7060  0.00  0.00     0.000 HD
BRANCH 42 49
ATOM     49   O  IDS B   3     -18.022  47.492  12.2960  0.00  0.00     0.000 O
ATOM     50   O  IDS B   3     -16.006  46.304  12.0250  0.00  0.00     0.000 OA
ATOM     51   O  IDS B   3     -17.747  45.994  10.4510  0.00  0.00     0.000 OA
ATOM     52   O  IDS B   3     -16.593  48.050  10.5620  0.00  0.00     0.000 OA
ATOM     53  @S  IDS B   3     -17.036  46.922  11.2730  0.00  0.00     0.000 S
ENDBRANCH 42 49
BRANCH 45 54
ATOM     54 @CA  IDS B   3     -19.075  51.184  15.2610  0.00  0.00     0.000 C
ATOM     55   O  IDS B   3     -19.701  51.535  16.2240  0.00  0.00     0.000 OA
ATOM     56   O  IDS B   3     -18.720  52.031  14.5110  0.00  0.00     0.000 OA
ENDBRANCH 45 54
BRANCH 41 57
ATOM     57  O4  SGN B   4     -16.590  47.923  15.5310  0.00  0.00     0.000 O
BRANCH 57 61
ATOM     58  C1  SGN B   4     -13.536  50.647  16.0340  0.00  0.00     0.000 C
ATOM     59  C2  SGN B   4     -13.229  49.480  15.1090  0.00  0.00     0.000 C
ATOM     60  C3  SGN B   4     -14.527  48.785  14.7060  0.00  0.00     0.000 C
ATOM     61  C4  SGN B   4     -15.326  48.349  15.9380  0.00  0.00     0.000 C
ATOM     62  C5  SGN B   4     -15.499  49.569  16.8400  0.00  0.00     0.000 C
ATOM     63  O5  SGN B   4     -14.250  50.156  17.1550  0.00  0.00     0.000 O
ATOM     64   O  SGN B   4     -14.210  47.637  13.9460  0.00  0.00     0.000 O
ATOM     66  HD  SGN B   4     -14.479  46.878  14.2650  0.00  0.00     0.000 HD
BRANCH 59 68
ATOM     66   N  SGN B   4     -11.803  49.318  14.9190  0.00  0.00     0.000 N
ATOM     68  HD  SGN B   4     -12.339  49.551  15.5580  0.00  0.00     0.000 HD
ATOM     68 @NS  SGN B   4     -10.957  50.430  14.0600  0.00  0.00     0.000 S
ATOM     69   O  SGN B   4     -11.772  50.867  12.9650  0.00  0.00     0.000 OA
ATOM     70   O  SGN B   4     -10.681  51.507  14.9670  0.00  0.00     0.000 OA
ATOM     71   O  SGN B   4      -9.783  49.731  13.6330  0.00  0.00     0.000 OA
ENDBRANCH 59 68
BRANCH 62 72
ATOM     72   C  SGN B   4     -16.171  49.235  18.1630  0.00  0.00     0.000 C
ATOM     73   O  SGN B   4     -17.541  49.208  17.8910  0.00  0.00     0.000 O
ATOM     74  @S  SGN B   4     -18.613  48.339  18.5710  0.00  0.00     0.000 S
ATOM     75   O  SGN B   4     -18.582  48.636  19.9550  0.00  0.00     0.000 OA
ATOM     76   O  SGN B   4     -19.839  48.750  17.9550  0.00  0.00     0.000 OA
ATOM     77   O  SGN B   4     -18.236  46.989  18.3200  0.00  0.00     0.000 OA
ENDBRANCH 62 72
BRANCH 58 78
ATOM     78  O4  IDS B   5     -14.252  51.646  15.3370  0.00  0.00     0.000 O
BRANCH 78 82
ATOM     79  C1  IDS B   5     -15.818  54.456  14.0530  0.00  0.00     0.000 C
ATOM     80  C2  IDS B   5     -14.519  54.005  13.4580  0.00  0.00     0.000 C
ATOM     81  C3  IDS B   5     -13.424  53.749  14.4900  0.00  0.00     0.000 C
ATOM     82  C4  IDS B   5     -13.924  52.971  15.6910  0.00  0.00     0.000 C
ATOM     83  C5  IDS B   5     -15.156  53.656  16.1900  0.00  0.00     0.000 C
ATOM     84  O5  IDS B   5     -16.142  53.655  15.1750  0.00  0.00     0.000 O
ATOM     85   O  IDS B   5     -12.966  54.997  14.9500  0.00  0.00     0.000 O
ATOM     87  HD  IDS B   5     -13.256  54.325  15.4140  0.00  0.00     0.000 HD
BRANCH 80 87
ATOM     87   O  IDS B   5     -14.736  52.819  12.8010  0.00  0.00     0.000 O
ATOM     88  @S  IDS B   5     -15.027  52.632  11.3100  0.00  0.00     0.000 S
ATOM     89   O  IDS B   5     -13.979  53.314  10.6420  0.00  0.00     0.000 OA
ATOM     90   O  IDS B   5     -15.036  51.227  11.1010  0.00  0.00     0.000 OA
ATOM     91   O  IDS B   5     -16.304  53.213  11.0840  0.00  0.00     0.000 OA
ENDBRANCH 80 87
BRANCH 83 92
ATOM     92 @CA  IDS B   5     -15.674  53.101  17.5120  0.00  0.00     0.000 C
ATOM     93   O  IDS B   5     -14.947  53.051  18.5070  0.00  0.00     0.000 OA
ATOM     94   O  IDS B   5     -16.835  52.686  17.6080  0.00  0.00     0.000 OA
ENDBRANCH 83 92
BRANCH 79 95
ATOM     95  O4  SGN B   6     -15.737  55.804  14.3760  0.00  0.00     0.000 O
BRANCH 95 99
ATOM     96  C1  SGN B   6     -18.305  58.400  16.3460  0.00  0.00     0.000 C
ATOM     97  C2  SGN B   6     -18.463  56.923  16.6840  0.00  0.00     0.000 C
ATOM     98  C3  SGN B   6     -17.139  56.248  16.3220  0.00  0.00     0.000 C
ATOM     99  C4  SGN B   6     -16.963  56.385  14.7830  0.00  0.00     0.000 C
ATOM    100  C5  SGN B   6     -16.924  57.910  14.4740  0.00  0.00     0.000 C
ATOM    101  O5  SGN B   6     -18.091  58.568  14.9580  0.00  0.00     0.000 O
BRANCH 97 104
ATOM    102   N  SGN B   6     -19.373  57.567  17.6360  0.00  0.00     0.000 N
ATOM    104  HD  SGN B   6     -19.207  57.280  18.4360  0.00  0.00     0.000 HD
ATOM    104 @NS  SGN B   6     -20.451  56.598  18.4430  0.00  0.00     0.000 S
ATOM    105   O  SGN B   6     -20.215  55.234  18.0240  0.00  0.00     0.000 OA
ATOM    106   O  SGN B   6     -20.205  56.787  19.8540  0.00  0.00     0.000 OA
ATOM    107   O  SGN B   6     -21.767  57.049  18.0480  0.00  0.00     0.000 OA
ENDBRANCH 97 104
BRANCH 100 108
ATOM    108   C  SGN B   6     -16.805  58.292  13.0040  0.00  0.00     0.000 C
ATOM    109   O  SGN B   6     -18.084  58.568  12.4880  0.00  0.00     0.000 O
ATOM    110  @S  SGN B   6     -18.408  58.994  11.0110  0.00  0.00     0.000 S
ATOM    111   O  SGN B   6     -17.553  58.190  10.1700  0.00  0.00     0.000 OA
ATOM    112   O  SGN B   6     -19.816  58.701  10.7980  0.00  0.00     0.000 OA
ATOM    113   O  SGN B   6     -18.102  60.404  10.9340  0.00  0.00     0.000 OA
ENDBRANCH 100 108
ENDBRANCH 95 99
ENDBRANCH 79 95
ENDBRANCH 78 82
ENDBRANCH 58 78
ENDBRANCH 57 61
ENDBRANCH 41 57
ENDBRANCH 40 44
ENDBRANCH 20 40
ENDBRANCH 19 23
ENDBRANCH 1 19
TORSDOF 22
ENDMDL
MODEL 61
REMARK VINA RESULT:       1.2      6.121     12.215
ROOT
ATOM      1  C1  IDS B   1     -15.635  47.167  20.0620  0.00  0.00     0.000 C
ATOM      2  C2  IDS B   1     -14.275  46.527  19.9740  0.00  0.00     0.000 C
ATOM      3  C3  IDS B   1     -13.101  47.471  19.6180  0.00  0.00     0.000 C
ATOM      4  C4  IDS B   1     -13.326  48.961  20.0730  0.00  0.00     0.000 C
ATOM      5  C5  IDS B   1     -14.824  49.349  20.1240  0.00  0.00     0.000 C
ATOM      6  O5  IDS B   1     -15.553  48.365  20.8070  0.00  0.00     0.000 O
ATOM      7   O  IDS B   1     -12.906  47.390  18.2100  0.00  0.00     0.000 O
ATOM      9  HD  IDS B   1     -12.599  48.145  18.5010  0.00  0.00     0.000 HD
ATOM      9   O  IDS B   1     -12.797  49.098  21.3720  0.00  0.00     0.000 O
ATOM     11  HD  IDS B   1     -12.490  49.853  21.6640  0.00  0.00     0.000 HD
ENDROOT
BRANCH 2 11
ATOM     11   O  IDS B   1     -13.954  45.944  21.1900  0.00  0.00     0.000 O
ATOM     12  @S  IDS B   1     -13.197  44.611  21.3440  0.00  0.00     0.000 S
ATOM     13   O  IDS B   1     -13.500  43.897  20.1210  0.00  0.00     0.000 OA
ATOM     14   O  IDS B   1     -11.789  44.943  21.4620  0.00  0.00     0.000 OA
ATOM     15   O  IDS B   1     -13.731  43.990  22.5400  0.00  0.00     0.000 OA
ENDBRANCH 2 11
BRANCH 5 16
ATOM     16 @CA  IDS B   1     -15.153  50.725  20.6970  0.00  0.00     0.000 C
ATOM     17   O  IDS B   1     -16.182  50.927  21.3370  0.00  0.00     0.000 OA
ATOM     18   O  IDS B   1     -14.379  51.666  20.5390  0.00  0.00     0.000 OA
ENDBRANCH 5 16
BRANCH 1 19
ATOM     19  O4  SGN B   2     -16.084  47.422  18.7470  0.00  0.00     0.000 O
BRANCH 19 23
ATOM     20  C1  SGN B   2     -19.542  46.504  16.7570  0.00  0.00     0.000 C
ATOM     21  C2  SGN B   2     -19.638  47.134  18.1290  0.00  0.00     0.000 C
ATOM     22  C3  SGN B   2     -18.395  47.897  18.4110  0.00  0.00     0.000 C
ATOM     23  C4  SGN B   2     -17.302  46.853  18.4280  0.00  0.00     0.000 C
ATOM     24  C5  SGN B   2     -17.221  46.350  17.0280  0.00  0.00     0.000 C
ATOM     25  O5  SGN B   2     -18.387  45.678  16.7140  0.00  0.00     0.000 O
ATOM     26   O  SGN B   2     -18.499  48.508  19.6490  0.00  0.00     0.000 O
ATOM     28  HD  SGN B   2     -18.443  48.750  20.4790  0.00  0.00     0.000 HD
BRANCH 21 30
ATOM     28   N  SGN B   2     -20.937  46.930  17.5560  0.00  0.00     0.000 N
ATOM     30  HD  SGN B   2     -21.047  47.713  17.2020  0.00  0.00     0.000 HD
ATOM     30 @NS  SGN B   2     -22.218  47.196  18.5200  0.00  0.00     0.000 S
ATOM     31   O  SGN B   2     -21.769  47.748  19.7540  0.00  0.00     0.000 OA
ATOM     32   O  SGN B   2     -22.991  48.117  17.7940  0.00  0.00     0.000 OA
ATOM     33   O  SGN B   2     -22.832  45.938  18.7170  0.00  0.00     0.000 OA
ENDBRANCH 21 30
BRANCH 24 34
ATOM     34   C  SGN B   2     -16.101  45.416  16.7530  0.00  0.00     0.000 C
ATOM     35   O  SGN B   2     -15.227  46.055  15.8920  0.00  0.00     0.000 O
ATOM     36  @S  SGN B   2     -13.847  45.512  15.5390  0.00  0.00     0.000 S
ATOM     37   O  SGN B   2     -14.071  44.712  14.3520  0.00  0.00     0.000 OA
ATOM     38   O  SGN B   2     -12.996  46.657  15.3130  0.00  0.00     0.000 OA
ATOM     39   O  SGN B   2     -13.433  44.739  16.7020  0.00  0.00     0.000 OA
ENDBRANCH 24 34
BRANCH 20 40
ATOM     40  O4  IDS B   3     -19.498  47.488  15.7700  0.00  0.00     0.000 O
BRANCH 40 44
ATOM     41  C1  IDS B   3     -20.418  48.840  12.6660  0.00  0.00     0.000 C
ATOM     42  C2  IDS B   3     -21.311  47.814  13.3610  0.00  0.00     0.000 C
ATOM     43  C3  IDS B   3     -20.591  46.568  13.9120  0.00  0.00     0.000 C
ATOM     44  C4  IDS B   3     -19.252  46.939  14.5180  0.00  0.00     0.000 C
ATOM     45  C5  IDS B   3     -18.481  47.941  13.6460  0.00  0.00     0.000 C
ATOM     46  O5  IDS B   3     -19.242  49.073  13.4270  0.00  0.00     0.000 O
ATOM     47   O  IDS B   3     -20.362  45.655  12.8590  0.00  0.00     0.000 O
ATOM     49  HD  IDS B   3     -20.487  45.900  13.6800  0.00  0.00     0.000 HD
BRANCH 42 49
ATOM     49   O  IDS B   3     -21.945  48.435  14.4420  0.00  0.00     0.000 O
ATOM     50   O  IDS B   3     -23.410  49.575  12.9910  0.00  0.00     0.000 OA
ATOM     51   O  IDS B   3     -24.243  48.731  15.0390  0.00  0.00     0.000 OA
ATOM     52   O  IDS B   3     -22.723  50.536  15.0260  0.00  0.00     0.000 OA
ATOM     53  @S  IDS B   3     -23.155  49.371  14.3700  0.00  0.00     0.000 S
ENDBRANCH 42 49
BRANCH 45 54
ATOM     54 @CA  IDS B   3     -17.104  48.341  14.1710  0.00  0.00     0.000 C
ATOM     55   O  IDS B   3     -16.977  49.065  15.1200  0.00  0.00     0.000 OA
ATOM     56   O  IDS B   3     -16.110  47.930  13.6700  0.00  0.00     0.000 OA
ENDBRANCH 45 54
BRANCH 41 57
ATOM     57  O4  SGN B   4     -20.120  48.404  11.3810  0.00  0.00     0.000 O
BRANCH 57 61
ATOM     58  C1  SGN B   4     -19.150  52.176  10.0280  0.00  0.00     0.000 C
ATOM     59  C2  SGN B   4     -20.611  51.782   9.8830  0.00  0.00     0.000 C
ATOM     60  C3  SGN B   4     -20.907  50.565  10.7550  0.00  0.00     0.000 C
ATOM     61  C4  SGN B   4     -19.961  49.405  10.4230  0.00  0.00     0.000 C
ATOM     62  C5  SGN B   4     -18.530  49.929  10.5090  0.00  0.00     0.000 C
ATOM     63  O5  SGN B   4     -18.347  51.061   9.6800  0.00  0.00     0.000 O
ATOM     64   O  SGN B   4     -22.234  50.145  10.5140  0.00  0.00     0.000 O
ATOM     66  HD  SGN B   4     -22.334  49.340  10.2120  0.00  0.00     0.000 HD
BRANCH 59 68
ATOM     66   N  SGN B   4     -20.579  52.933   9.0040  0.00  0.00     0.000 N
ATOM     68  HD  SGN B   4     -20.091  52.600   9.6370  0.00  0.00     0.000 HD
ATOM     68 @NS  SGN B   4     -21.585  54.200   9.2740  0.00  0.00     0.000 S
ATOM     69   O  SGN B   4     -22.845  53.686   9.7220  0.00  0.00     0.000 OA
ATOM     70   O  SGN B   4     -20.957  54.998  10.2880  0.00  0.00     0.000 OA
ATOM     71   O  SGN B   4     -21.674  54.858   8.0070  0.00  0.00     0.000 OA
ENDBRANCH 59 68
BRANCH 62 72
ATOM     72   C  SGN B   4     -17.497  48.900  10.0770  0.00  0.00     0.000 C
ATOM     73   O  SGN B   4     -16.453  49.633   9.5090  0.00  0.00     0.000 O
ATOM     74  @S  SGN B   4     -14.955  49.281   9.5070  0.00  0.00     0.000 S
ATOM     75   O  SGN B   4     -14.818  48.018   8.8810  0.00  0.00     0.000 OA
ATOM     76   O  SGN B   4     -14.348  50.332   8.7470  0.00  0.00     0.000 OA
ATOM     77   O  SGN B   4     -14.567  49.227  10.8760  0.00  0.00     0.000 OA
ENDBRANCH 62 72
BRANCH 58 78
ATOM     78  O4  IDS B   5     -18.896  52.630  11.3420  0.00  0.00     0.000 O
BRANCH 78 82
ATOM     79  C1  IDS B   5     -18.195  54.356  14.2620  0.00  0.00     0.000 C
ATOM     80  C2  IDS B   5     -19.169  54.938  13.2830  0.00  0.00     0.000 C
ATOM     81  C3  IDS B   5     -18.652  54.977  11.8480  0.00  0.00     0.000 C
ATOM     82  C4  IDS B   5     -17.968  53.689  11.4370  0.00  0.00     0.000 C
ATOM     83  C5  IDS B   5     -16.964  53.355  12.4930  0.00  0.00     0.000 C
ATOM     84  O5  IDS B   5     -17.623  53.174  13.7330  0.00  0.00     0.000 O
ATOM     85   O  IDS B   5     -17.701  56.011  11.7620  0.00  0.00     0.000 O
ATOM     87  HD  IDS B   5     -17.614  55.179  11.5380  0.00  0.00     0.000 HD
BRANCH 80 87
ATOM     87   O  IDS B   5     -20.296  54.154  13.2810  0.00  0.00     0.000 O
ATOM     88  @S  IDS B   5     -21.531  54.314  14.1710  0.00  0.00     0.000 S
ATOM     89   O  IDS B   5     -21.938  55.661  13.9960  0.00  0.00     0.000 OA
ATOM     90   O  IDS B   5     -22.466  53.355  13.6950  0.00  0.00     0.000 OA
ATOM     91   O  IDS B   5     -21.102  54.028  15.4950  0.00  0.00     0.000 OA
ENDBRANCH 80 87
BRANCH 83 92
ATOM     92 @CA  IDS B   5     -16.060  52.183  12.1320  0.00  0.00     0.000 C
ATOM     93   O  IDS B   5     -15.230  52.277  11.2240  0.00  0.00     0.000 OA
ATOM     94   O  IDS B   5     -16.147  51.110  12.7420  0.00  0.00     0.000 OA
ENDBRANCH 83 92
BRANCH 79 95
ATOM     95  O4  SGN B   6     -17.234  55.308  14.5810  0.00  0.00     0.000 O
BRANCH 95 99
ATOM     96  C1  SGN B   6     -14.447  55.849  17.6060  0.00  0.00     0.000 C
ATOM     97  C2  SGN B   6     -14.356  54.532  16.8430  0.00  0.00     0.000 C
ATOM     98  C3  SGN B   6     -15.040  54.760  15.4950  0.00  0.00     0.000 C
ATOM     99  C4  SGN B   6     -16.538  55.057  15.7890  0.00  0.00     0.000 C
ATOM    100  C5  SGN B   6     -16.574  56.341  16.6660  0.00  0.00     0.000 C
ATOM    101  O5  SGN B   6     -15.799  56.184  17.8510  0.00  0.00     0.000 O
BRANCH 97 104
ATOM    102   N  SGN B   6     -13.940  53.605  17.9000  0.00  0.00     0.000 N
ATOM    104  HD  SGN B   6     -13.313  53.967  18.3750  0.00  0.00     0.000 HD
ATOM    104 @NS  SGN B   6     -12.384  53.030  17.8500  0.00  0.00     0.000 S
ATOM    105   O  SGN B   6     -11.727  53.642  16.7160  0.00  0.00     0.000 OA
ATOM    106   O  SGN B   6     -11.765  53.397  19.1030  0.00  0.00     0.000 OA
ATOM    107   O  SGN B   6     -12.492  51.598  17.6860  0.00  0.00     0.000 OA
ENDBRANCH 97 104
BRANCH 100 108
ATOM    108   C  SGN B   6     -17.952  56.802  17.1240  0.00  0.00     0.000 C
ATOM    109   O  SGN B   6     -18.560  55.780  17.8740  0.00  0.00     0.000 O
ATOM    110  @S  SGN B   6     -19.989  55.843  18.5260  0.00  0.00     0.000 S
ATOM    111   O  SGN B   6     -20.836  56.503  17.5620  0.00  0.00     0.000 OA
ATOM    112   O  SGN B   6     -20.395  54.467  18.7610  0.00  0.00     0.000 OA
ATOM    113   O  SGN B   6     -19.829  56.605  19.7440  0.00  0.00     0.000 OA
ENDBRANCH 100 108
ENDBRANCH 95 99
ENDBRANCH 79 95
ENDBRANCH 78 82
ENDBRANCH 58 78
ENDBRANCH 57 61
ENDBRANCH 41 57
ENDBRANCH 40 44
ENDBRANCH 20 40
ENDBRANCH 19 23
ENDBRANCH 1 19
TORSDOF 22
ENDMDL
MODEL 62
REMARK VINA RESULT:       1.3      3.850      6.024
ROOT
ATOM      1  C1  IDS B   1     -17.273  49.569  16.2160  0.00  0.00     0.000 C
ATOM      2  C2  IDS B   1     -17.584  48.148  16.6070  0.00  0.00     0.000 C
ATOM      3  C3  IDS B   1     -17.713  47.135  15.4450  0.00  0.00     0.000 C
ATOM      4  C4  IDS B   1     -16.861  47.514  14.1770  0.00  0.00     0.000 C
ATOM      5  C5  IDS B   1     -16.648  49.041  14.0360  0.00  0.00     0.000 C
ATOM      6  O5  IDS B   1     -16.233  49.585  15.2600  0.00  0.00     0.000 O
ATOM      7   O  IDS B   1     -19.097  47.038  15.1200  0.00  0.00     0.000 O
ATOM      9  HD  IDS B   1     -18.622  46.809  14.4330  0.00  0.00     0.000 HD
ATOM      9   O  IDS B   1     -15.594  46.910  14.3160  0.00  0.00     0.000 O
ATOM     11  HD  IDS B   1     -15.119  46.681  13.6290  0.00  0.00     0.000 HD
ENDROOT
BRANCH 2 11
ATOM     11   O  IDS B   1     -16.588  47.665  17.4400  0.00  0.00     0.000 O
ATOM     12  @S  IDS B   1     -16.689  47.603  18.9760  0.00  0.00     0.000 S
ATOM     13   O  IDS B   1     -17.622  48.661  19.3050  0.00  0.00     0.000 OA
ATOM     14   O  IDS B   1     -17.202  46.285  19.3070  0.00  0.00     0.000 OA
ATOM     15   O  IDS B   1     -15.345  47.824  19.4710  0.00  0.00     0.000 OA
ENDBRANCH 2 11
BRANCH 5 16
ATOM     16 @CA  IDS B   1     -15.709  49.498  12.9230  0.00  0.00     0.000 C
ATOM     17   O  IDS B   1     -16.133  50.026  11.8980  0.00  0.00     0.000 OA
ATOM     18   O  IDS B   1     -14.494  49.359  13.0370  0.00  0.00     0.000 OA
ENDBRANCH 5 16
BRANCH 1 19
ATOM     19  O4  SGN B   2     -18.450  50.145  15.6880  0.00  0.00     0.000 O
BRANCH 19 23
ATOM     20  C1  SGN B   2     -20.914  53.123  17.0360  0.00  0.00     0.000 C
ATOM     21  C2  SGN B   2     -19.417  53.318  17.1350  0.00  0.00     0.000 C
ATOM     22  C3  SGN B   2     -18.740  52.470  16.1190  0.00  0.00     0.000 C
ATOM     23  C4  SGN B   2     -19.077  51.052  16.5210  0.00  0.00     0.000 C
ATOM     24  C5  SGN B   2     -20.547  50.926  16.3140  0.00  0.00     0.000 C
ATOM     25  O5  SGN B   2     -21.208  51.744  17.2100  0.00  0.00     0.000 O
ATOM     26   O  SGN B   2     -17.374  52.679  16.1810  0.00  0.00     0.000 O
ATOM     28  HD  SGN B   2     -16.518  52.637  16.3060  0.00  0.00     0.000 HD
BRANCH 21 30
ATOM     28   N  SGN B   2     -20.130  54.464  17.6200  0.00  0.00     0.000 N
ATOM     30  HD  SGN B   2     -20.154  54.923  16.8860  0.00  0.00     0.000 HD
ATOM     30 @NS  SGN B   2     -19.248  55.640  18.3130  0.00  0.00     0.000 S
ATOM     31   O  SGN B   2     -17.864  55.343  18.1550  0.00  0.00     0.000 OA
ATOM     32   O  SGN B   2     -19.613  56.792  17.5970  0.00  0.00     0.000 OA
ATOM     33   O  SGN B   2     -19.614  55.656  19.6790  0.00  0.00     0.000 OA
ENDBRANCH 21 30
BRANCH 24 34
ATOM     34   C  SGN B   2     -21.098  49.560  16.4930  0.00  0.00     0.000 C
ATOM     35   O  SGN B   2     -20.616  49.069  17.6930  0.00  0.00     0.000 O
ATOM     36  @S  SGN B   2     -21.120  47.783  18.3380  0.00  0.00     0.000 S
ATOM     37   O  SGN B   2     -20.236  46.756  17.8240  0.00  0.00     0.000 OA
ATOM     38   O  SGN B   2     -21.021  47.969  19.7670  0.00  0.00     0.000 OA
ATOM     39   O  SGN B   2     -22.500  47.649  17.8950  0.00  0.00     0.000 OA
ENDBRANCH 24 34
BRANCH 20 40
ATOM     40  O4  IDS B   3     -21.388  53.591  15.8110  0.00  0.00     0.000 O
BRANCH 40 44
ATOM     41  C1  IDS B   3     -24.135  55.026  14.1670  0.00  0.00     0.000 C
ATOM     42  C2  IDS B   3     -24.108  54.926  15.6910  0.00  0.00     0.000 C
ATOM     43  C3  IDS B   3     -23.688  53.558  16.2620  0.00  0.00     0.000 C
ATOM     44  C4  IDS B   3     -22.565  52.951  15.4450  0.00  0.00     0.000 C
ATOM     45  C5  IDS B   3     -22.802  53.106  13.9340  0.00  0.00     0.000 C
ATOM     46  O5  IDS B   3     -22.969  54.437  13.6090  0.00  0.00     0.000 O
ATOM     47   O  IDS B   3     -24.790  52.677  16.2250  0.00  0.00     0.000 O
ATOM     49  HD  IDS B   3     -24.035  52.987  16.5140  0.00  0.00     0.000 HD
BRANCH 42 49
ATOM     49   O  IDS B   3     -23.204  55.874  16.1830  0.00  0.00     0.000 O
ATOM     50   O  IDS B   3     -24.701  56.487  17.8950  0.00  0.00     0.000 OA
ATOM     51   O  IDS B   3     -22.386  56.369  18.3760  0.00  0.00     0.000 OA
ATOM     52   O  IDS B   3     -23.224  58.057  16.9540  0.00  0.00     0.000 OA
ATOM     53  @S  IDS B   3     -23.388  56.745  17.4290  0.00  0.00     0.000 S
ENDBRANCH 42 49
BRANCH 45 54
ATOM     54 @CA  IDS B   3     -21.730  52.488  13.0380  0.00  0.00     0.000 C
ATOM     55   O  IDS B   3     -20.939  53.167  12.4420  0.00  0.00     0.000 OA
ATOM     56   O  IDS B   3     -21.629  51.312  12.9180  0.00  0.00     0.000 OA
ENDBRANCH 45 54
BRANCH 41 57
ATOM     57  O4  SGN B   4     -25.293  54.431  13.6810  0.00  0.00     0.000 O
BRANCH 57 61
ATOM     58  C1  SGN B   4     -27.564  54.426  10.2400  0.00  0.00     0.000 C
ATOM     59  C2  SGN B   4     -26.462  53.382  10.3010  0.00  0.00     0.000 C
ATOM     60  C3  SGN B   4     -25.972  53.229  11.7380  0.00  0.00     0.000 C
ATOM     61  C4  SGN B   4     -25.521  54.577  12.3140  0.00  0.00     0.000 C
ATOM     62  C5  SGN B   4     -26.662  55.573  12.1210  0.00  0.00     0.000 C
ATOM     63  O5  SGN B   4     -27.059  55.643  10.7640  0.00  0.00     0.000 O
ATOM     64   O  SGN B   4     -24.871  52.344  11.7520  0.00  0.00     0.000 O
ATOM     66  HD  SGN B   4     -24.124  52.664  12.0510  0.00  0.00     0.000 HD
BRANCH 59 68
ATOM     66   N  SGN B   4     -27.144  52.205   9.8030  0.00  0.00     0.000 N
ATOM     68  HD  SGN B   4     -26.394  52.390  10.1940  0.00  0.00     0.000 HD
ATOM     68 @NS  SGN B   4     -27.223  51.922   8.1900  0.00  0.00     0.000 S
ATOM     69   O  SGN B   4     -27.399  53.178   7.5210  0.00  0.00     0.000 OA
ATOM     70   O  SGN B   4     -25.976  51.311   7.8310  0.00  0.00     0.000 OA
ATOM     71   O  SGN B   4     -28.348  51.051   8.0360  0.00  0.00     0.000 OA
ENDBRANCH 59 68
BRANCH 62 72
ATOM     72   C  SGN B   4     -26.289  56.987  12.5400  0.00  0.00     0.000 C
ATOM     73   O  SGN B   4     -25.350  57.420  11.6020  0.00  0.00     0.000 O
ATOM     74  @S  SGN B   4     -25.118  58.858  11.1040  0.00  0.00     0.000 S
ATOM     75   O  SGN B   4     -24.809  59.651  12.2360  0.00  0.00     0.000 OA
ATOM     76   O  SGN B   4     -24.011  58.743  10.2030  0.00  0.00     0.000 OA
ATOM     77   O  SGN B   4     -26.344  59.263  10.5040  0.00  0.00     0.000 OA
ENDBRANCH 62 72
BRANCH 58 78
ATOM     78  O4  IDS B   5     -28.704  53.973  10.9400  0.00  0.00     0.000 O
BRANCH 78 82
ATOM     79  C1  IDS B   5     -31.811  52.927  12.0580  0.00  0.00     0.000 C
ATOM     80  C2  IDS B   5     -31.262  52.359  10.7850  0.00  0.00     0.000 C
ATOM     81  C3  IDS B   5     -30.760  53.416   9.8050  0.00  0.00     0.000 C
ATOM     82  C4  IDS B   5     -29.933  54.492  10.4780  0.00  0.00     0.000 C
ATOM     83  C5  IDS B   5     -30.714  54.994  11.6500  0.00  0.00     0.000 C
ATOM     84  O5  IDS B   5     -30.946  53.931  12.5550  0.00  0.00     0.000 O
ATOM     85   O  IDS B   5     -31.884  54.038   9.2310  0.00  0.00     0.000 O
ATOM     87  HD  IDS B   5     -31.210  54.406   9.6320  0.00  0.00     0.000 HD
BRANCH 80 87
ATOM     87   O  IDS B   5     -30.188  51.562  11.0980  0.00  0.00     0.000 O
ATOM     88  @S  IDS B   5     -30.222  50.082  11.4860  0.00  0.00     0.000 S
ATOM     89   O  IDS B   5     -30.948  49.445  10.4470  0.00  0.00     0.000 OA
ATOM     90   O  IDS B   5     -28.862  49.684  11.5760  0.00  0.00     0.000 OA
ATOM     91   O  IDS B   5     -30.881  50.020  12.7440  0.00  0.00     0.000 OA
ENDBRANCH 80 87
BRANCH 83 92
ATOM     92 @CA  IDS B   5     -30.096  56.214  12.3220  0.00  0.00     0.000 C
ATOM     93   O  IDS B   5     -30.090  57.313  11.7620  0.00  0.00     0.000 OA
ATOM     94   O  IDS B   5     -29.583  56.122  13.4440  0.00  0.00     0.000 OA
ENDBRANCH 83 92
BRANCH 79 95
ATOM     95  O4  SGN B   6     -33.097  53.403  11.8360  0.00  0.00     0.000 O
BRANCH 95 99
ATOM     96  C1  SGN B   6     -36.103  55.076  14.1540  0.00  0.00     0.000 C
ATOM     97  C2  SGN B   6     -34.729  55.724  14.2760  0.00  0.00     0.000 C
ATOM     98  C3  SGN B   6     -33.961  55.362  13.0040  0.00  0.00     0.000 C
ATOM     99  C4  SGN B   6     -33.780  53.817  13.0050  0.00  0.00     0.000 C
ATOM    100  C5  SGN B   6     -35.208  53.202  12.9980  0.00  0.00     0.000 C
ATOM    101  O5  SGN B   6     -35.981  53.668  14.1000  0.00  0.00     0.000 O
BRANCH 97 104
ATOM    102   N  SGN B   6     -35.268  57.047  14.6030  0.00  0.00     0.000 N
ATOM    104  HD  SGN B   6     -34.622  57.622  14.6480  0.00  0.00     0.000 HD
ATOM    104 @NS  SGN B   6     -34.818  57.724  16.0500  0.00  0.00     0.000 S
ATOM    105   O  SGN B   6     -33.903  56.810  16.6970  0.00  0.00     0.000 OA
ATOM    106   O  SGN B   6     -34.197  58.991  15.7410  0.00  0.00     0.000 OA
ATOM    107   O  SGN B   6     -36.036  57.878  16.8150  0.00  0.00     0.000 OA
ENDBRANCH 97 104
BRANCH 100 108
ATOM    108   C  SGN B   6     -35.283  51.680  13.0480  0.00  0.00     0.000 C
ATOM    109   O  SGN B   6     -35.373  51.174  11.7400  0.00  0.00     0.000 O
ATOM    110  @S  SGN B   6     -35.475  49.656  11.3460  0.00  0.00     0.000 S
ATOM    111   O  SGN B   6     -36.361  49.054  12.3140  0.00  0.00     0.000 OA
ATOM    112   O  SGN B   6     -36.026  49.617  10.0010  0.00  0.00     0.000 OA
ATOM    113   O  SGN B   6     -34.127  49.140  11.4240  0.00  0.00     0.000 OA
ENDBRANCH 100 108
ENDBRANCH 95 99
ENDBRANCH 79 95
ENDBRANCH 78 82
ENDBRANCH 58 78
ENDBRANCH 57 61
ENDBRANCH 41 57
ENDBRANCH 40 44
ENDBRANCH 20 40
ENDBRANCH 19 23
ENDBRANCH 1 19
TORSDOF 22
ENDMDL
MODEL 63
REMARK VINA RESULT:       1.3      2.899      4.680
ROOT
ATOM      1  C1  IDS B   1     -16.176  50.806  16.6080  0.00  0.00     0.000 C
ATOM      2  C2  IDS B   1     -16.402  49.336  16.8490  0.00  0.00     0.000 C
ATOM      3  C3  IDS B   1     -16.216  48.409  15.6240  0.00  0.00     0.000 C
ATOM      4  C4  IDS B   1     -15.196  48.963  14.5610  0.00  0.00     0.000 C
ATOM      5  C5  IDS B   1     -15.122  50.510  14.5530  0.00  0.00     0.000 C
ATOM      6  O5  IDS B   1     -14.990  50.992  15.8630  0.00  0.00     0.000 O
ATOM      7   O  IDS B   1     -17.502  48.212  15.0450  0.00  0.00     0.000 O
ATOM      9  HD  IDS B   1     -16.891  48.082  14.4450  0.00  0.00     0.000 HD
ATOM      9   O  IDS B   1     -13.918  48.469  14.8940  0.00  0.00     0.000 O
ATOM     11  HD  IDS B   1     -13.308  48.339  14.2940  0.00  0.00     0.000 HD
ENDROOT
BRANCH 2 11
ATOM     11   O  IDS B   1     -15.524  48.883  17.8210  0.00  0.00     0.000 O
ATOM     12  @S  IDS B   1     -15.458  47.429  18.3260  0.00  0.00     0.000 S
ATOM     13   O  IDS B   1     -16.795  46.921  18.0950  0.00  0.00     0.000 OA
ATOM     14   O  IDS B   1     -14.458  46.753  17.5190  0.00  0.00     0.000 OA
ATOM     15   O  IDS B   1     -15.089  47.512  19.7250  0.00  0.00     0.000 OA
ENDBRANCH 2 11
BRANCH 5 16
ATOM     16 @CA  IDS B   1     -14.054  51.137  13.6630  0.00  0.00     0.000 C
ATOM     17   O  IDS B   1     -13.036  50.525  13.3490  0.00  0.00     0.000 OA
ATOM     18   O  IDS B   1     -14.197  52.276  13.2250  0.00  0.00     0.000 OA
ENDBRANCH 5 16
BRANCH 1 19
ATOM     19  O4  SGN B   2     -17.294  51.311  15.9080  0.00  0.00     0.000 O
BRANCH 19 23
ATOM     20  C1  SGN B   2     -20.262  53.935  16.9400  0.00  0.00     0.000 C
ATOM     21  C2  SGN B   2     -18.829  54.294  17.2670  0.00  0.00     0.000 C
ATOM     22  C3  SGN B   2     -17.915  53.569  16.3450  0.00  0.00     0.000 C
ATOM     23  C4  SGN B   2     -18.138  52.108  16.6580  0.00  0.00     0.000 C
ATOM     24  C5  SGN B   2     -19.537  51.825  16.2300  0.00  0.00     0.000 C
ATOM     25  O5  SGN B   2     -20.414  52.526  17.0350  0.00  0.00     0.000 O
ATOM     26   O  SGN B   2     -16.606  53.928  16.6170  0.00  0.00     0.000 O
ATOM     28  HD  SGN B   2     -15.779  53.978  16.8680  0.00  0.00     0.000 HD
BRANCH 21 30
ATOM     28   N  SGN B   2     -19.724  55.354  17.6290  0.00  0.00     0.000 N
ATOM     30  HD  SGN B   2     -19.646  55.839  16.9160  0.00  0.00     0.000 HD
ATOM     30 @NS  SGN B   2     -19.107  56.570  18.5120  0.00  0.00     0.000 S
ATOM     31   O  SGN B   2     -17.698  56.398  18.6270  0.00  0.00     0.000 OA
ATOM     32   O  SGN B   2     -19.428  57.716  17.7660  0.00  0.00     0.000 OA
ATOM     33   O  SGN B   2     -19.734  56.497  19.7780  0.00  0.00     0.000 OA
ENDBRANCH 21 30
BRANCH 24 34
ATOM     34   C  SGN B   2     -19.945  50.399  16.2920  0.00  0.00     0.000 C
ATOM     35   O  SGN B   2     -21.185  50.347  16.9030  0.00  0.00     0.000 O
ATOM     36  @S  SGN B   2     -22.039  49.086  16.9620  0.00  0.00     0.000 S
ATOM     37   O  SGN B   2     -21.652  48.451  18.2070  0.00  0.00     0.000 OA
ATOM     38   O  SGN B   2     -23.418  49.516  16.9370  0.00  0.00     0.000 OA
ATOM     39   O  SGN B   2     -21.678  48.324  15.7750  0.00  0.00     0.000 OA
ENDBRANCH 24 34
BRANCH 20 40
ATOM     40  O4  IDS B   3     -20.602  54.397  15.6690  0.00  0.00     0.000 O
BRANCH 40 44
ATOM     41  C1  IDS B   3     -23.548  55.523  14.1330  0.00  0.00     0.000 C
ATOM     42  C2  IDS B   3     -23.549  55.113  15.6050  0.00  0.00     0.000 C
ATOM     43  C3  IDS B   3     -22.848  53.778  15.9250  0.00  0.00     0.000 C
ATOM     44  C4  IDS B   3     -21.592  53.611  15.0930  0.00  0.00     0.000 C
ATOM     45  C5  IDS B   3     -21.809  54.026  13.6300  0.00  0.00     0.000 C
ATOM     46  O5  IDS B   3     -22.263  55.329  13.5620  0.00  0.00     0.000 O
ATOM     47   O  IDS B   3     -23.722  52.709  15.6290  0.00  0.00     0.000 O
ATOM     49  HD  IDS B   3     -23.066  53.106  16.0310  0.00  0.00     0.000 HD
BRANCH 42 49
ATOM     49   O  IDS B   3     -22.898  56.108  16.3430  0.00  0.00     0.000 O
ATOM     50   O  IDS B   3     -24.756  56.332  17.7730  0.00  0.00     0.000 OA
ATOM     51   O  IDS B   3     -22.576  56.456  18.6880  0.00  0.00     0.000 OA
ATOM     52   O  IDS B   3     -23.376  58.171  17.2770  0.00  0.00     0.000 OA
ATOM     53  @S  IDS B   3     -23.432  56.804  17.5980  0.00  0.00     0.000 S
ENDBRANCH 42 49
BRANCH 45 54
ATOM     54 @CA  IDS B   3     -20.599  53.855  12.7150  0.00  0.00     0.000 C
ATOM     55   O  IDS B   3     -19.699  53.108  12.9930  0.00  0.00     0.000 OA
ATOM     56   O  IDS B   3     -20.516  54.438  11.6850  0.00  0.00     0.000 OA
ENDBRANCH 45 54
BRANCH 41 57
ATOM     57  O4  SGN B   4     -24.526  54.809  13.4510  0.00  0.00     0.000 O
BRANCH 57 61
ATOM     58  C1  SGN B   4     -27.227  55.313  10.3770  0.00  0.00     0.000 C
ATOM     59  C2  SGN B   4     -25.790  55.056   9.9530  0.00  0.00     0.000 C
ATOM     60  C3  SGN B   4     -24.993  54.508  11.1330  0.00  0.00     0.000 C
ATOM     61  C4  SGN B   4     -25.079  55.448  12.3410  0.00  0.00     0.000 C
ATOM     62  C5  SGN B   4     -26.555  55.712  12.6250  0.00  0.00     0.000 C
ATOM     63  O5  SGN B   4     -27.218  56.207  11.4770  0.00  0.00     0.000 O
ATOM     64   O  SGN B   4     -23.638  54.390  10.7510  0.00  0.00     0.000 O
ATOM     66  HD  SGN B   4     -23.067  54.851  11.2120  0.00  0.00     0.000 HD
BRANCH 59 68
ATOM     66   N  SGN B   4     -25.463  55.366   8.5760  0.00  0.00     0.000 N
ATOM     68  HD  SGN B   4     -25.894  55.738   9.2290  0.00  0.00     0.000 HD
ATOM     68 @NS  SGN B   4     -26.249  54.605   7.3550  0.00  0.00     0.000 S
ATOM     69   O  SGN B   4     -26.467  53.242   7.7400  0.00  0.00     0.000 OA
ATOM     70   O  SGN B   4     -27.490  55.303   7.1830  0.00  0.00     0.000 OA
ATOM     71   O  SGN B   4     -25.367  54.728   6.2340  0.00  0.00     0.000 OA
ENDBRANCH 59 68
BRANCH 62 72
ATOM     72   C  SGN B   4     -26.771  56.736  13.7290  0.00  0.00     0.000 C
ATOM     73   O  SGN B   4     -26.627  57.983  13.1170  0.00  0.00     0.000 O
ATOM     74  @S  SGN B   4     -27.336  59.296  13.4900  0.00  0.00     0.000 S
ATOM     75   O  SGN B   4     -27.017  59.579  14.8410  0.00  0.00     0.000 OA
ATOM     76   O  SGN B   4     -26.784  60.262  12.5880  0.00  0.00     0.000 OA
ATOM     77   O  SGN B   4     -28.729  59.046  13.3270  0.00  0.00     0.000 OA
ENDBRANCH 62 72
BRANCH 58 78
ATOM     78  O4  IDS B   5     -27.870  54.092  10.6820  0.00  0.00     0.000 O
BRANCH 78 82
ATOM     79  C1  IDS B   5     -29.909  51.343  11.2140  0.00  0.00     0.000 C
ATOM     80  C2  IDS B   5     -29.327  51.571   9.8530  0.00  0.00     0.000 C
ATOM     81  C3  IDS B   5     -29.532  52.988   9.3240  0.00  0.00     0.000 C
ATOM     82  C4  IDS B   5     -29.245  54.048  10.3680  0.00  0.00     0.000 C
ATOM     83  C5  IDS B   5     -30.010  53.685  11.6010  0.00  0.00     0.000 C
ATOM     84  O5  IDS B   5     -29.578  52.422  12.0700  0.00  0.00     0.000 O
ATOM     85   O  IDS B   5     -30.881  53.115   8.9460  0.00  0.00     0.000 O
ATOM     87  HD  IDS B   5     -30.422  53.617   9.4830  0.00  0.00     0.000 HD
BRANCH 80 87
ATOM     87   O  IDS B   5     -27.972  51.362   9.9240  0.00  0.00     0.000 O
ATOM     88  @S  IDS B   5     -27.171  50.263   9.2210  0.00  0.00     0.000 S
ATOM     89   O  IDS B   5     -27.524  50.369   7.8510  0.00  0.00     0.000 OA
ATOM     90   O  IDS B   5     -25.808  50.554   9.4970  0.00  0.00     0.000 OA
ATOM     91   O  IDS B   5     -27.585  49.038   9.8100  0.00  0.00     0.000 OA
ENDBRANCH 80 87
BRANCH 83 92
ATOM     92 @CA  IDS B   5     -29.973  54.757  12.6830  0.00  0.00     0.000 C
ATOM     93   O  IDS B   5     -30.237  55.933  12.4210  0.00  0.00     0.000 OA
ATOM     94   O  IDS B   5     -29.673  54.466  13.8470  0.00  0.00     0.000 OA
ENDBRANCH 83 92
BRANCH 79 95
ATOM     95  O4  SGN B   6     -31.281  51.158  11.1080  0.00  0.00     0.000 O
BRANCH 95 99
ATOM     96  C1  SGN B   6     -33.916  48.835  13.3150  0.00  0.00     0.000 C
ATOM     97  C2  SGN B   6     -33.965  50.335  13.5820  0.00  0.00     0.000 C
ATOM     98  C3  SGN B   6     -33.377  51.018  12.3470  0.00  0.00     0.000 C
ATOM     99  C4  SGN B   6     -31.887  50.583  12.2510  0.00  0.00     0.000 C
ATOM    100  C5  SGN B   6     -31.885  49.035  12.0960  0.00  0.00     0.000 C
ATOM    101  O5  SGN B   6     -32.577  48.404  13.1700  0.00  0.00     0.000 O
BRANCH 97 104
ATOM    102   N  SGN B   6     -34.481  51.315  14.5430  0.00  0.00     0.000 N
ATOM    104  HD  SGN B   6     -34.367  51.020  15.3490  0.00  0.00     0.000 HD
ATOM    104 @NS  SGN B   6     -35.771  50.863  15.4830  0.00  0.00     0.000 S
ATOM    105   O  SGN B   6     -36.101  49.495  15.1480  0.00  0.00     0.000 OA
ATOM    106   O  SGN B   6     -35.351  51.002  16.8590  0.00  0.00     0.000 OA
ATOM    107   O  SGN B   6     -36.850  51.763  15.1420  0.00  0.00     0.000 OA
ENDBRANCH 97 104
BRANCH 100 108
ATOM    108   C  SGN B   6     -30.515  48.370  12.0320  0.00  0.00     0.000 C
ATOM    109   O  SGN B   6     -30.089  48.052  13.3340  0.00  0.00     0.000 O
ATOM    110  @S  SGN B   6     -28.729  47.362  13.7130  0.00  0.00     0.000 S
ATOM    111   O  SGN B   6     -27.731  47.952  12.8530  0.00  0.00     0.000 OA
ATOM    112   O  SGN B   6     -28.491  47.665  15.1160  0.00  0.00     0.000 OA
ATOM    113   O  SGN B   6     -28.922  45.952  13.4600  0.00  0.00     0.000 OA
ENDBRANCH 100 108
ENDBRANCH 95 99
ENDBRANCH 79 95
ENDBRANCH 78 82
ENDBRANCH 58 78
ENDBRANCH 57 61
ENDBRANCH 41 57
ENDBRANCH 40 44
ENDBRANCH 20 40
ENDBRANCH 19 23
ENDBRANCH 1 19
TORSDOF 22
ENDMDL
MODEL 64
REMARK VINA RESULT:       1.4      3.191      5.420
ROOT
ATOM      1  C1  IDS B   1     -18.272  51.520  13.7080  0.00  0.00     0.000 C
ATOM      2  C2  IDS B   1     -16.920  51.793  13.1040  0.00  0.00     0.000 C
ATOM      3  C3  IDS B   1     -16.152  50.560  12.5690  0.00  0.00     0.000 C
ATOM      4  C4  IDS B   1     -17.089  49.387  12.0950  0.00  0.00     0.000 C
ATOM      5  C5  IDS B   1     -18.442  49.363  12.8470  0.00  0.00     0.000 C
ATOM      6  O5  IDS B   1     -19.003  50.647  12.8710  0.00  0.00     0.000 O
ATOM      7   O  IDS B   1     -15.275  50.127  13.6050  0.00  0.00     0.000 O
ATOM      9  HD  IDS B   1     -15.446  49.464  13.0740  0.00  0.00     0.000 HD
ATOM      9   O  IDS B   1     -17.358  49.581  10.7240  0.00  0.00     0.000 O
ATOM     11  HD  IDS B   1     -17.529  48.918  10.1940  0.00  0.00     0.000 HD
ENDROOT
BRANCH 2 11
ATOM     11   O  IDS B   1     -17.055  52.664  12.0340  0.00  0.00     0.000 O
ATOM     12  @S  IDS B   1     -16.368  54.041  11.9400  0.00  0.00     0.000 S
ATOM     13   O  IDS B   1     -16.175  54.427  13.3230  0.00  0.00     0.000 OA
ATOM     14   O  IDS B   1     -15.114  53.834  11.2390  0.00  0.00     0.000 OA
ATOM     15   O  IDS B   1     -17.288  54.892  11.2110  0.00  0.00     0.000 OA
ENDBRANCH 2 11
BRANCH 5 16
ATOM     16 @CA  IDS B   1     -19.478  48.356  12.3550  0.00  0.00     0.000 C
ATOM     17   O  IDS B   1     -20.180  48.583  11.3730  0.00  0.00     0.000 OA
ATOM     18   O  IDS B   1     -19.623  47.280  12.9290  0.00  0.00     0.000 OA
ENDBRANCH 5 16
BRANCH 1 19
ATOM     19  O4  SGN B   2     -18.073  50.944  14.9830  0.00  0.00     0.000 O
BRANCH 19 23
ATOM     20  C1  SGN B   2     -21.083  52.870  16.9800  0.00  0.00     0.000 C
ATOM     21  C2  SGN B   2     -19.693  53.465  17.0120  0.00  0.00     0.000 C
ATOM     22  C3  SGN B   2     -18.929  53.003  15.8240  0.00  0.00     0.000 C
ATOM     23  C4  SGN B   2     -18.824  51.505  15.9980  0.00  0.00     0.000 C
ATOM     24  C5  SGN B   2     -20.219  50.998  15.8700  0.00  0.00     0.000 C
ATOM     25  O5  SGN B   2     -20.973  51.454  16.9340  0.00  0.00     0.000 O
ATOM     26   O  SGN B   2     -17.671  53.579  15.8300  0.00  0.00     0.000 O
ATOM     28  HD  SGN B   2     -16.827  53.765  15.8890  0.00  0.00     0.000 HD
BRANCH 21 30
ATOM     28   N  SGN B   2     -19.324  54.111  18.2380  0.00  0.00     0.000 N
ATOM     30  HD  SGN B   2     -19.890  53.722  18.7660  0.00  0.00     0.000 HD
ATOM     30 @NS  SGN B   2     -20.025  55.542  18.5570  0.00  0.00     0.000 S
ATOM     31   O  SGN B   2     -21.024  55.803  17.5760  0.00  0.00     0.000 OA
ATOM     32   O  SGN B   2     -20.590  55.356  19.8300  0.00  0.00     0.000 OA
ATOM     33   O  SGN B   2     -18.994  56.508  18.5060  0.00  0.00     0.000 OA
ENDBRANCH 21 30
BRANCH 24 34
ATOM     34   C  SGN B   2     -20.359  49.520  15.8480  0.00  0.00     0.000 C
ATOM     35   O  SGN B   2     -21.453  49.193  16.6290  0.00  0.00     0.000 O
ATOM     36  @S  SGN B   2     -22.055  47.794  16.6890  0.00  0.00     0.000 S
ATOM     37   O  SGN B   2     -21.364  47.155  17.7910  0.00  0.00     0.000 OA
ATOM     38   O  SGN B   2     -23.472  47.961  16.9130  0.00  0.00     0.000 OA
ATOM     39   O  SGN B   2     -21.769  47.200  15.3900  0.00  0.00     0.000 OA
ENDBRANCH 24 34
BRANCH 20 40
ATOM     40  O4  IDS B   3     -21.798  53.358  15.8870  0.00  0.00     0.000 O
BRANCH 40 44
ATOM     41  C1  IDS B   3     -24.851  54.357  14.4760  0.00  0.00     0.000 C
ATOM     42  C2  IDS B   3     -24.698  54.239  15.9920  0.00  0.00     0.000 C
ATOM     43  C3  IDS B   3     -24.024  52.948  16.4950  0.00  0.00     0.000 C
ATOM     44  C4  IDS B   3     -22.881  52.542  15.5860  0.00  0.00     0.000 C
ATOM     45  C5  IDS B   3     -23.248  52.681  14.1000  0.00  0.00     0.000 C
ATOM     46  O5  IDS B   3     -23.649  53.973  13.8230  0.00  0.00     0.000 O
ATOM     47   O  IDS B   3     -24.972  51.900  16.5100  0.00  0.00     0.000 O
ATOM     49  HD  IDS B   3     -24.257  52.324  16.7540  0.00  0.00     0.000 HD
BRANCH 42 49
ATOM     49   O  IDS B   3     -23.924  55.312  16.4460  0.00  0.00     0.000 O
ATOM     50   O  IDS B   3     -25.644  56.836  15.9300  0.00  0.00     0.000 OA
ATOM     51   O  IDS B   3     -24.378  57.154  17.9040  0.00  0.00     0.000 OA
ATOM     52   O  IDS B   3     -23.382  57.464  15.7870  0.00  0.00     0.000 OA
ATOM     53  @S  IDS B   3     -24.360  56.777  16.5260  0.00  0.00     0.000 S
ENDBRANCH 42 49
BRANCH 45 54
ATOM     54 @CA  IDS B   3     -22.160  52.259  13.1160  0.00  0.00     0.000 C
ATOM     55   O  IDS B   3     -22.223  51.222  12.5120  0.00  0.00     0.000 OA
ATOM     56   O  IDS B   3     -21.223  52.953  12.8970  0.00  0.00     0.000 OA
ENDBRANCH 45 54
BRANCH 41 57
ATOM     57  O4  SGN B   4     -25.931  53.591  14.0560  0.00  0.00     0.000 O
BRANCH 57 61
ATOM     58  C1  SGN B   4     -28.410  53.303  10.7740  0.00  0.00     0.000 C
ATOM     59  C2  SGN B   4     -27.186  52.403  10.7530  0.00  0.00     0.000 C
ATOM     60  C3  SGN B   4     -26.586  52.313  12.1530  0.00  0.00     0.000 C
ATOM     61  C4  SGN B   4     -26.267  53.706  12.7080  0.00  0.00     0.000 C
ATOM     62  C5  SGN B   4     -27.532  54.553  12.5990  0.00  0.00     0.000 C
ATOM     63  O5  SGN B   4     -28.025  54.573  11.2720  0.00  0.00     0.000 O
ATOM     64   O  SGN B   4     -25.385  51.571  12.0860  0.00  0.00     0.000 O
ATOM     66  HD  SGN B   4     -24.665  51.981  12.3370  0.00  0.00     0.000 HD
BRANCH 59 68
ATOM     66   N  SGN B   4     -26.902  51.940   9.4100  0.00  0.00     0.000 N
ATOM     68  HD  SGN B   4     -27.208  52.657   9.7860  0.00  0.00     0.000 HD
ATOM     68 @NS  SGN B   4     -27.901  50.859   8.6860  0.00  0.00     0.000 S
ATOM     69   O  SGN B   4     -28.347  49.925   9.6770  0.00  0.00     0.000 OA
ATOM     70   O  SGN B   4     -28.996  51.620   8.1570  0.00  0.00     0.000 OA
ATOM     71   O  SGN B   4     -27.091  50.250   7.6750  0.00  0.00     0.000 OA
ENDBRANCH 59 68
BRANCH 62 72
ATOM     72   C  SGN B   4     -27.309  56.003  13.0030  0.00  0.00     0.000 C
ATOM     73   O  SGN B   4     -27.395  56.739  11.8190  0.00  0.00     0.000 O
ATOM     74  @S  SGN B   4     -27.901  58.182  11.6490  0.00  0.00     0.000 S
ATOM     75   O  SGN B   4     -27.096  59.011  12.4680  0.00  0.00     0.000 OA
ATOM     76   O  SGN B   4     -27.720  58.456  10.2550  0.00  0.00     0.000 OA
ATOM     77   O  SGN B   4     -29.255  58.174  12.0900  0.00  0.00     0.000 OA
ENDBRANCH 62 72
BRANCH 58 78
ATOM     78  O4  IDS B   5     -29.436  52.712  11.5450  0.00  0.00     0.000 O
BRANCH 78 82
ATOM     79  C1  IDS B   5     -32.314  51.632  13.1410  0.00  0.00     0.000 C
ATOM     80  C2  IDS B   5     -31.730  50.799  12.0400  0.00  0.00     0.000 C
ATOM     81  C3  IDS B   5     -31.424  51.585  10.7690  0.00  0.00     0.000 C
ATOM     82  C4  IDS B   5     -30.743  52.909  11.0490  0.00  0.00     0.000 C
ATOM     83  C5  IDS B   5     -31.550  53.620  12.0880  0.00  0.00     0.000 C
ATOM     84  O5  IDS B   5     -31.591  52.842  13.2700  0.00  0.00     0.000 O
ATOM     85   O  IDS B   5     -32.647  51.862  10.1290  0.00  0.00     0.000 O
ATOM     87  HD  IDS B   5     -32.022  52.415  10.3590  0.00  0.00     0.000 HD
BRANCH 80 87
ATOM     87   O  IDS B   5     -30.541  50.275  12.4830  0.00  0.00     0.000 O
ATOM     88  @S  IDS B   5     -30.325  48.912  13.1440  0.00  0.00     0.000 S
ATOM     89   O  IDS B   5     -30.909  47.974  12.2550  0.00  0.00     0.000 OA
ATOM     90   O  IDS B   5     -28.917  48.781  13.2880  0.00  0.00     0.000 OA
ATOM     91   O  IDS B   5     -30.986  48.975  14.4010  0.00  0.00     0.000 OA
ENDBRANCH 80 87
BRANCH 83 92
ATOM     92 @CA  IDS B   5     -31.096  55.052  12.3440  0.00  0.00     0.000 C
ATOM     93   O  IDS B   5     -31.055  55.878  11.4280  0.00  0.00     0.000 OA
ATOM     94   O  IDS B   5     -30.755  55.412  13.4770  0.00  0.00     0.000 OA
ENDBRANCH 83 92
BRANCH 79 95
ATOM     95  O4  SGN B   6     -33.663  51.850  12.8910  0.00  0.00     0.000 O
BRANCH 95 99
ATOM     96  C1  SGN B   6     -36.866  53.090  15.2180  0.00  0.00     0.000 C
ATOM     97  C2  SGN B   6     -35.504  53.655  15.6030  0.00  0.00     0.000 C
ATOM     98  C3  SGN B   6     -34.619  53.545  14.3620  0.00  0.00     0.000 C
ATOM     99  C4  SGN B   6     -34.454  52.030  14.0520  0.00  0.00     0.000 C
ATOM    100  C5  SGN B   6     -35.881  51.474  13.7800  0.00  0.00     0.000 C
ATOM    101  O5  SGN B   6     -36.754  51.722  14.8780  0.00  0.00     0.000 O
BRANCH 97 104
ATOM    102   N  SGN B   6     -36.299  54.004  16.7850  0.00  0.00     0.000 N
ATOM    104  HD  SGN B   6     -36.607  54.809  16.7010  0.00  0.00     0.000 HD
ATOM    104 @NS  SGN B   6     -35.748  55.239  17.7450  0.00  0.00     0.000 S
ATOM    105   O  SGN B   6     -34.539  55.757  17.1420  0.00  0.00     0.000 OA
ATOM    106   O  SGN B   6     -36.800  56.228  17.7950  0.00  0.00     0.000 OA
ATOM    107   O  SGN B   6     -35.480  54.651  19.0380  0.00  0.00     0.000 OA
ENDBRANCH 97 104
BRANCH 100 108
ATOM    108   C  SGN B   6     -35.975  49.979  13.4990  0.00  0.00     0.000 C
ATOM    109   O  SGN B   6     -35.243  49.274  14.4710  0.00  0.00     0.000 O
ATOM    110  @S  SGN B   6     -35.077  47.713  14.5430  0.00  0.00     0.000 S
ATOM    111   O  SGN B   6     -34.900  47.269  13.1810  0.00  0.00     0.000 OA
ATOM    112   O  SGN B   6     -33.898  47.463  15.3580  0.00  0.00     0.000 OA
ATOM    113   O  SGN B   6     -36.296  47.217  15.1390  0.00  0.00     0.000 OA
ENDBRANCH 100 108
ENDBRANCH 95 99
ENDBRANCH 79 95
ENDBRANCH 78 82
ENDBRANCH 58 78
ENDBRANCH 57 61
ENDBRANCH 41 57
ENDBRANCH 40 44
ENDBRANCH 20 40
ENDBRANCH 19 23
ENDBRANCH 1 19
TORSDOF 22
ENDMDL
MODEL 65
REMARK VINA RESULT:       1.4      4.258      8.800
ROOT
ATOM      1  C1  IDS B   1     -13.425  57.658  13.4400  0.00  0.00     0.000 C
ATOM      2  C2  IDS B   1     -13.335  58.166  12.0240  0.00  0.00     0.000 C
ATOM      3  C3  IDS B   1     -14.391  59.219  11.6110  0.00  0.00     0.000 C
ATOM      4  C4  IDS B   1     -14.915  60.094  12.8110  0.00  0.00     0.000 C
ATOM      5  C5  IDS B   1     -14.855  59.347  14.1650  0.00  0.00     0.000 C
ATOM      6  O5  IDS B   1     -13.600  58.744  14.3270  0.00  0.00     0.000 O
ATOM      7   O  IDS B   1     -15.460  58.521  10.9810  0.00  0.00     0.000 O
ATOM      9  HD  IDS B   1     -15.752  59.273  11.2970  0.00  0.00     0.000 HD
ATOM      9   O  IDS B   1     -14.089  61.232  12.9050  0.00  0.00     0.000 O
ATOM     11  HD  IDS B   1     -14.380  61.984  13.2210  0.00  0.00     0.000 HD
ENDROOT
BRANCH 2 11
ATOM     11   O  IDS B   1     -12.096  58.750  11.8170  0.00  0.00     0.000 O
ATOM     12  @S  IDS B   1     -10.952  58.104  11.0120  0.00  0.00     0.000 S
ATOM     13   O  IDS B   1     -11.204  56.682  11.1300  0.00  0.00     0.000 OA
ATOM     14   O  IDS B   1     -11.082  58.581   9.6470  0.00  0.00     0.000 OA
ATOM     15   O  IDS B   1      -9.725  58.542  11.6460  0.00  0.00     0.000 OA
ENDBRANCH 2 11
BRANCH 5 16
ATOM     16 @CA  IDS B   1     -15.201  60.160  15.4090  0.00  0.00     0.000 C
ATOM     17   O  IDS B   1     -14.505  61.104  15.7750  0.00  0.00     0.000 OA
ATOM     18   O  IDS B   1     -16.202  59.894  16.0700  0.00  0.00     0.000 OA
ENDBRANCH 5 16
BRANCH 1 19
ATOM     19  O4  SGN B   2     -14.518  56.766  13.5150  0.00  0.00     0.000 O
BRANCH 19 23
ATOM     20  C1  SGN B   2     -15.125  53.299  15.6060  0.00  0.00     0.000 C
ATOM     21  C2  SGN B   2     -15.267  54.620  16.3310  0.00  0.00     0.000 C
ATOM     22  C3  SGN B   2     -15.589  55.689  15.3510  0.00  0.00     0.000 C
ATOM     23  C4  SGN B   2     -14.380  55.755  14.4470  0.00  0.00     0.000 C
ATOM     24  C5  SGN B   2     -14.366  54.456  13.7170  0.00  0.00     0.000 C
ATOM     25  O5  SGN B   2     -14.121  53.431  14.6100  0.00  0.00     0.000 O
ATOM     26   O  SGN B   2     -15.760  56.890  16.0180  0.00  0.00     0.000 O
ATOM     28  HD  SGN B   2     -15.693  57.682  16.3620  0.00  0.00     0.000 HD
BRANCH 21 30
ATOM     28   N  SGN B   2     -14.750  54.016  17.5250  0.00  0.00     0.000 N
ATOM     30  HD  SGN B   2     -14.877  53.185  17.3160  0.00  0.00     0.000 HD
ATOM     30 @NS  SGN B   2     -15.779  53.849  18.7710  0.00  0.00     0.000 S
ATOM     31   O  SGN B   2     -17.088  54.221  18.3510  0.00  0.00     0.000 OA
ATOM     32   O  SGN B   2     -15.705  52.480  19.0790  0.00  0.00     0.000 OA
ATOM     33   O  SGN B   2     -15.307  54.708  19.7910  0.00  0.00     0.000 OA
ENDBRANCH 21 30
BRANCH 24 34
ATOM     34   C  SGN B   2     -13.349  54.341  12.6430  0.00  0.00     0.000 C
ATOM     35   O  SGN B   2     -13.683  53.245  11.8680  0.00  0.00     0.000 O
ATOM     36  @S  SGN B   2     -13.008  52.917  10.5410  0.00  0.00     0.000 S
ATOM     37   O  SGN B   2     -11.913  52.040  10.9050  0.00  0.00     0.000 OA
ATOM     38   O  SGN B   2     -14.007  52.282   9.7130  0.00  0.00     0.000 OA
ATOM     39   O  SGN B   2     -12.582  54.201  10.0020  0.00  0.00     0.000 OA
ENDBRANCH 24 34
BRANCH 20 40
ATOM     40  O4  IDS B   3     -16.344  52.914  15.0500  0.00  0.00     0.000 O
BRANCH 40 44
ATOM     41  C1  IDS B   3     -19.316  51.093  14.6560  0.00  0.00     0.000 C
ATOM     42  C2  IDS B   3     -18.770  51.394  16.0500  0.00  0.00     0.000 C
ATOM     43  C3  IDS B   3     -17.265  51.124  16.2490  0.00  0.00     0.000 C
ATOM     44  C4  IDS B   3     -16.474  51.532  15.0230  0.00  0.00     0.000 C
ATOM     45  C5  IDS B   3     -17.161  51.093  13.7200  0.00  0.00     0.000 C
ATOM     46  O5  IDS B   3     -18.443  51.602  13.6580  0.00  0.00     0.000 O
ATOM     47   O  IDS B   3     -17.062  49.744  16.4690  0.00  0.00     0.000 O
ATOM     49  HD  IDS B   3     -16.880  50.589  16.5230  0.00  0.00     0.000 HD
BRANCH 42 49
ATOM     49   O  IDS B   3     -18.987  52.747  16.3300  0.00  0.00     0.000 O
ATOM     50   O  IDS B   3     -21.136  52.280  17.1740  0.00  0.00     0.000 OA
ATOM     51   O  IDS B   3     -19.802  53.909  18.2570  0.00  0.00     0.000 OA
ATOM     52   O  IDS B   3     -20.669  54.321  16.1010  0.00  0.00     0.000 OA
ATOM     53  @S  IDS B   3     -20.220  53.348  17.0100  0.00  0.00     0.000 S
ENDBRANCH 42 49
BRANCH 45 54
ATOM     54 @CA  IDS B   3     -16.409  51.436  12.4360  0.00  0.00     0.000 C
ATOM     55   O  IDS B   3     -16.615  52.458  11.8390  0.00  0.00     0.000 OA
ATOM     56   O  IDS B   3     -15.577  50.714  11.9970  0.00  0.00     0.000 OA
ENDBRANCH 45 54
BRANCH 41 57
ATOM     57  O4  SGN B   4     -19.510  49.724  14.5180  0.00  0.00     0.000 O
BRANCH 57 61
ATOM     58  C1  SGN B   4     -23.083  50.266  12.5330  0.00  0.00     0.000 C
ATOM     59  C2  SGN B   4     -23.197  49.950  14.0150  0.00  0.00     0.000 C
ATOM     60  C3  SGN B   4     -21.847  50.161  14.6940  0.00  0.00     0.000 C
ATOM     61  C4  SGN B   4     -20.750  49.336  14.0110  0.00  0.00     0.000 C
ATOM     62  C5  SGN B   4     -20.781  49.659  12.5200  0.00  0.00     0.000 C
ATOM     63  O5  SGN B   4     -22.070  49.445  11.9750  0.00  0.00     0.000 O
ATOM     64   O  SGN B   4     -21.946  49.749  16.0410  0.00  0.00     0.000 O
ATOM     66  HD  SGN B   4     -21.417  49.109  16.2880  0.00  0.00     0.000 HD
BRANCH 59 68
ATOM     66   N  SGN B   4     -24.206  50.814  14.5920  0.00  0.00     0.000 N
ATOM     68  HD  SGN B   4     -23.671  50.188  14.8620  0.00  0.00     0.000 HD
ATOM     68 @NS  SGN B   4     -25.795  50.521  14.3130  0.00  0.00     0.000 S
ATOM     69   O  SGN B   4     -25.938  50.073  12.9590  0.00  0.00     0.000 OA
ATOM     70   O  SGN B   4     -26.182  49.500  15.2430  0.00  0.00     0.000 OA
ATOM     71   O  SGN B   4     -26.435  51.779  14.5500  0.00  0.00     0.000 OA
ENDBRANCH 59 68
BRANCH 62 72
ATOM     72   C  SGN B   4     -19.818  48.804  11.7100  0.00  0.00     0.000 C
ATOM     73   O  SGN B   4     -20.260  47.489  11.8680  0.00  0.00     0.000 O
ATOM     74  @S  SGN B   4     -20.151  46.336  10.8550  0.00  0.00     0.000 S
ATOM     75   O  SGN B   4     -18.778  46.164  10.5570  0.00  0.00     0.000 OA
ATOM     76   O  SGN B   4     -20.703  45.209  11.5450  0.00  0.00     0.000 OA
ATOM     77   O  SGN B   4     -20.883  46.757   9.7080  0.00  0.00     0.000 OA
ENDBRANCH 62 72
BRANCH 58 78
ATOM     78  O4  IDS B   5     -22.822  51.642  12.3460  0.00  0.00     0.000 O
BRANCH 78 82
ATOM     79  C1  IDS B   5     -23.111  55.046  11.7770  0.00  0.00     0.000 C
ATOM     80  C2  IDS B   5     -24.281  54.295  12.3360  0.00  0.00     0.000 C
ATOM     81  C3  IDS B   5     -24.631  53.030  11.5560  0.00  0.00     0.000 C
ATOM     82  C4  IDS B   5     -23.410  52.209  11.1950  0.00  0.00     0.000 C
ATOM     83  C5  IDS B   5     -22.421  53.130  10.5540  0.00  0.00     0.000 C
ATOM     84  O5  IDS B   5     -22.061  54.148  11.4680  0.00  0.00     0.000 O
ATOM     85   O  IDS B   5     -25.250  53.424  10.3560  0.00  0.00     0.000 O
ATOM     87  HD  IDS B   5     -24.566  52.903  10.4640  0.00  0.00     0.000 HD
BRANCH 80 87
ATOM     87   O  IDS B   5     -23.969  53.903  13.6140  0.00  0.00     0.000 O
ATOM     88  @S  IDS B   5     -24.263  54.666  14.9090  0.00  0.00     0.000 S
ATOM     89   O  IDS B   5     -25.653  54.943  14.8660  0.00  0.00     0.000 OA
ATOM     90   O  IDS B   5     -23.874  53.791  15.9590  0.00  0.00     0.000 OA
ATOM     91   O  IDS B   5     -23.459  55.837  14.8660  0.00  0.00     0.000 OA
ENDBRANCH 80 87
BRANCH 83 92
ATOM     92 @CA  IDS B   5     -21.211  52.416   9.9640  0.00  0.00     0.000 C
ATOM     93   O  IDS B   5     -21.348  51.416   9.2550  0.00  0.00     0.000 OA
ATOM     94   O  IDS B   5     -20.066  52.826  10.1900  0.00  0.00     0.000 OA
ENDBRANCH 83 92
BRANCH 79 95
ATOM     95  O4  SGN B   6     -23.518  55.781  10.6710  0.00  0.00     0.000 O
BRANCH 95 99
ATOM     96  C1  SGN B   6     -21.966  59.084   8.6970  0.00  0.00     0.000 C
ATOM     97  C2  SGN B   6     -20.951  58.189   9.3990  0.00  0.00     0.000 C
ATOM     98  C3  SGN B   6     -21.612  56.820   9.5580  0.00  0.00     0.000 C
ATOM     99  C4  SGN B   6     -22.835  57.010  10.4990  0.00  0.00     0.000 C
ATOM    100  C5  SGN B   6     -23.786  58.019   9.7940  0.00  0.00     0.000 C
ATOM    101  O5  SGN B   6     -23.120  59.243   9.4990  0.00  0.00     0.000 O
BRANCH 97 104
ATOM    102   N  SGN B   6     -20.111  59.197   8.7450  0.00  0.00     0.000 N
ATOM    104  HD  SGN B   6     -19.539  58.806   8.2250  0.00  0.00     0.000 HD
ATOM    104 @NS  SGN B   6     -18.490  59.193   9.0980  0.00  0.00     0.000 S
ATOM    105   O  SGN B   6     -18.242  58.098  10.0110  0.00  0.00     0.000 OA
ATOM    106   O  SGN B   6     -17.791  59.027   7.8450  0.00  0.00     0.000 OA
ATOM    107   O  SGN B   6     -18.213  60.468   9.7200  0.00  0.00     0.000 OA
ENDBRANCH 97 104
BRANCH 100 108
ATOM    108   C  SGN B   6     -25.046  58.401  10.5620  0.00  0.00     0.000 C
ATOM    109   O  SGN B   6     -24.892  59.692  11.0980  0.00  0.00     0.000 O
ATOM    110  @S  SGN B   6     -25.955  60.461  11.9640  0.00  0.00     0.000 S
ATOM    111   O  SGN B   6     -26.530  59.478  12.8500  0.00  0.00     0.000 OA
ATOM    112   O  SGN B   6     -25.227  61.491  12.6880  0.00  0.00     0.000 OA
ATOM    113   O  SGN B   6     -26.913  60.995  11.0230  0.00  0.00     0.000 OA
ENDBRANCH 100 108
ENDBRANCH 95 99
ENDBRANCH 79 95
ENDBRANCH 78 82
ENDBRANCH 58 78
ENDBRANCH 57 61
ENDBRANCH 41 57
ENDBRANCH 40 44
ENDBRANCH 20 40
ENDBRANCH 19 23
ENDBRANCH 1 19
TORSDOF 22
ENDMDL
MODEL 66
REMARK VINA RESULT:       1.5      5.021     10.570
ROOT
ATOM      1  C1  IDS B   1     -15.082  51.110  19.5430  0.00  0.00     0.000 C
ATOM      2  C2  IDS B   1     -13.580  51.142  19.6510  0.00  0.00     0.000 C
ATOM      3  C3  IDS B   1     -12.887  52.421  19.1250  0.00  0.00     0.000 C
ATOM      4  C4  IDS B   1     -13.786  53.710  19.2130  0.00  0.00     0.000 C
ATOM      5  C5  IDS B   1     -15.298  53.390  19.1230  0.00  0.00     0.000 C
ATOM      6  O5  IDS B   1     -15.620  52.337  19.9910  0.00  0.00     0.000 O
ATOM      7   O  IDS B   1     -12.491  52.164  17.7810  0.00  0.00     0.000 O
ATOM      9  HD  IDS B   1     -12.579  53.018  17.8990  0.00  0.00     0.000 HD
ATOM      9   O  IDS B   1     -13.544  54.318  20.4620  0.00  0.00     0.000 O
ATOM     11  HD  IDS B   1     -13.632  55.171  20.5790  0.00  0.00     0.000 HD
ENDROOT
BRANCH 2 11
ATOM     11   O  IDS B   1     -13.206  51.011  20.9790  0.00  0.00     0.000 O
ATOM     12  @S  IDS B   1     -12.438  49.805  21.5540  0.00  0.00     0.000 S
ATOM     13   O  IDS B   1     -12.791  48.715  20.6660  0.00  0.00     0.000 OA
ATOM     14   O  IDS B   1     -11.027  50.141  21.4910  0.00  0.00     0.000 OA
ATOM     15   O  IDS B   1     -12.918  49.641  22.9120  0.00  0.00     0.000 OA
ENDBRANCH 2 11
BRANCH 5 16
ATOM     16 @CA  IDS B   1     -16.257  54.556  19.3490  0.00  0.00     0.000 C
ATOM     17   O  IDS B   1     -15.928  55.543  20.0030  0.00  0.00     0.000 OA
ATOM     18   O  IDS B   1     -17.386  54.537  18.8640  0.00  0.00     0.000 OA
ENDBRANCH 5 16
BRANCH 1 19
ATOM     19  O4  SGN B   2     -15.418  50.877  18.1910  0.00  0.00     0.000 O
BRANCH 19 23
ATOM     20  C1  SGN B   2     -17.180  47.659  16.3750  0.00  0.00     0.000 C
ATOM     21  C2  SGN B   2     -17.534  47.965  17.8140  0.00  0.00     0.000 C
ATOM     22  C3  SGN B   2     -17.289  49.406  18.0870  0.00  0.00     0.000 C
ATOM     23  C4  SGN B   2     -15.800  49.581  17.9010  0.00  0.00     0.000 C
ATOM     24  C5  SGN B   2     -15.556  49.344  16.4510  0.00  0.00     0.000 C
ATOM     25  O5  SGN B   2     -15.826  48.023  16.1500  0.00  0.00     0.000 O
ATOM     26   O  SGN B   2     -17.651  49.696  19.3910  0.00  0.00     0.000 O
ATOM     28  HD  SGN B   2     -17.687  49.881  20.2360  0.00  0.00     0.000 HD
BRANCH 21 30
ATOM     28   N  SGN B   2     -17.694  46.548  17.9540  0.00  0.00     0.000 N
ATOM     30  HD  SGN B   2     -17.882  46.356  17.1310  0.00  0.00     0.000 HD
ATOM     30 @NS  SGN B   2     -19.161  46.012  18.4020  0.00  0.00     0.000 S
ATOM     31   O  SGN B   2     -20.073  47.106  18.4210  0.00  0.00     0.000 OA
ATOM     32   O  SGN B   2     -19.493  45.082  17.4030  0.00  0.00     0.000 OA
ATOM     33   O  SGN B   2     -19.002  45.458  19.6930  0.00  0.00     0.000 OA
ENDBRANCH 21 30
BRANCH 24 34
ATOM     34   C  SGN B   2     -14.173  49.615  15.9860  0.00  0.00     0.000 C
ATOM     35   O  SGN B   2     -13.850  48.649  15.0500  0.00  0.00     0.000 O
ATOM     36  @S  SGN B   2     -12.599  48.706  14.1810  0.00  0.00     0.000 S
ATOM     37   O  SGN B   2     -11.604  47.975  14.9420  0.00  0.00     0.000 OA
ATOM     38   O  SGN B   2     -12.938  48.082  12.9230  0.00  0.00     0.000 OA
ATOM     39   O  SGN B   2     -12.302  50.123  14.0310  0.00  0.00     0.000 OA
ENDBRANCH 24 34
BRANCH 20 40
ATOM     40  O4  IDS B   3     -18.037  48.335  15.5070  0.00  0.00     0.000 O
BRANCH 40 44
ATOM     41  C1  IDS B   3     -20.168  48.631  12.7370  0.00  0.00     0.000 C
ATOM     42  C2  IDS B   3     -19.984  47.284  13.4330  0.00  0.00     0.000 C
ATOM     43  C3  IDS B   3     -18.526  46.884  13.7330  0.00  0.00     0.000 C
ATOM     44  C4  IDS B   3     -17.715  48.084  14.1800  0.00  0.00     0.000 C
ATOM     45  C5  IDS B   3     -18.002  49.327  13.3230  0.00  0.00     0.000 C
ATOM     46  O5  IDS B   3     -19.351  49.622  13.3430  0.00  0.00     0.000 O
ATOM     47   O  IDS B   3     -17.934  46.359  12.5630  0.00  0.00     0.000 O
ATOM     49  HD  IDS B   3     -18.041  46.466  13.4160  0.00  0.00     0.000 HD
BRANCH 42 49
ATOM     49   O  IDS B   3     -20.662  47.319  14.6550  0.00  0.00     0.000 O
ATOM     50   O  IDS B   3     -22.691  46.749  13.6030  0.00  0.00     0.000 OA
ATOM     51   O  IDS B   3     -22.191  45.817  15.7200  0.00  0.00     0.000 OA
ATOM     52   O  IDS B   3     -22.657  48.122  15.5140  0.00  0.00     0.000 OA
ATOM     53  @S  IDS B   3     -22.137  46.977  14.8870  0.00  0.00     0.000 S
ENDBRANCH 42 49
BRANCH 45 54
ATOM     54 @CA  IDS B   3     -17.198  50.572  13.6880  0.00  0.00     0.000 C
ATOM     55   O  IDS B   3     -17.523  51.290  14.5950  0.00  0.00     0.000 OA
ATOM     56   O  IDS B   3     -16.209  50.861  13.0990  0.00  0.00     0.000 OA
ENDBRANCH 45 54
BRANCH 41 57
ATOM     57  O4  SGN B   4     -19.892  48.497  11.3810  0.00  0.00     0.000 O
BRANCH 57 61
ATOM     58  C1  SGN B   4     -21.662  52.072  10.3390  0.00  0.00     0.000 C
ATOM     59  C2  SGN B   4     -22.592  50.872  10.4000  0.00  0.00     0.000 C
ATOM     60  C3  SGN B   4     -21.918  49.733  11.1590  0.00  0.00     0.000 C
ATOM     61  C4  SGN B   4     -20.563  49.380  10.5360  0.00  0.00     0.000 C
ATOM     62  C5  SGN B   4     -19.745  50.665  10.4370  0.00  0.00     0.000 C
ATOM     63  O5  SGN B   4     -20.448  51.668   9.7280  0.00  0.00     0.000 O
ATOM     64   O  SGN B   4     -22.750  48.593  11.1010  0.00  0.00     0.000 O
ATOM     66  HD  SGN B   4     -22.412  47.888  10.7280  0.00  0.00     0.000 HD
BRANCH 59 68
ATOM     66   N  SGN B   4     -23.869  51.046   9.7380  0.00  0.00     0.000 N
ATOM     68  HD  SGN B   4     -23.037  51.227   9.5790  0.00  0.00     0.000 HD
ATOM     68 @NS  SGN B   4     -24.913  52.200  10.2580  0.00  0.00     0.000 S
ATOM     69   O  SGN B   4     -24.844  52.257  11.6880  0.00  0.00     0.000 OA
ATOM     70   O  SGN B   4     -24.474  53.430   9.6650  0.00  0.00     0.000 OA
ATOM     71   O  SGN B   4     -26.190  51.762   9.7820  0.00  0.00     0.000 OA
ENDBRANCH 59 68
BRANCH 62 72
ATOM     72   C  SGN B   4     -18.420  50.468   9.7150  0.00  0.00     0.000 C
ATOM     73   O  SGN B   4     -18.064  49.137   9.9430  0.00  0.00     0.000 O
ATOM     74  @S  SGN B   4     -17.268  48.207   9.0100  0.00  0.00     0.000 S
ATOM     75   O  SGN B   4     -16.016  48.822   8.7680  0.00  0.00     0.000 OA
ATOM     76   O  SGN B   4     -17.141  46.990   9.7530  0.00  0.00     0.000 OA
ATOM     77   O  SGN B   4     -18.037  48.106   7.8150  0.00  0.00     0.000 OA
ENDBRANCH 62 72
BRANCH 58 78
ATOM     78  O4  IDS B   5     -21.461  52.600  11.6340  0.00  0.00     0.000 O
BRANCH 78 82
ATOM     79  C1  IDS B   5     -20.865  54.393  14.5370  0.00  0.00     0.000 C
ATOM     80  C2  IDS B   5     -22.274  54.232  14.0520  0.00  0.00     0.000 C
ATOM     81  C3  IDS B   5     -22.462  54.583  12.5780  0.00  0.00     0.000 C
ATOM     82  C4  IDS B   5     -21.373  54.007  11.6960  0.00  0.00     0.000 C
ATOM     83  C5  IDS B   5     -20.058  54.381  12.3020  0.00  0.00     0.000 C
ATOM     84  O5  IDS B   5     -19.963  53.830  13.6020  0.00  0.00     0.000 O
ATOM     85   O  IDS B   5     -22.411  55.984  12.4600  0.00  0.00     0.000 O
ATOM     87  HD  IDS B   5     -21.948  55.390  12.0330  0.00  0.00     0.000 HD
BRANCH 80 87
ATOM     87   O  IDS B   5     -22.630  52.914  14.1980  0.00  0.00     0.000 O
ATOM     88  @S  IDS B   5     -23.702  52.348  15.1330  0.00  0.00     0.000 S
ATOM     89   O  IDS B   5     -24.876  53.085  14.8360  0.00  0.00     0.000 OA
ATOM     90   O  IDS B   5     -23.786  50.965  14.8170  0.00  0.00     0.000 OA
ATOM     91   O  IDS B   5     -23.226  52.565  16.4540  0.00  0.00     0.000 OA
ENDBRANCH 80 87
BRANCH 83 92
ATOM     92 @CA  IDS B   5     -18.859  54.034  11.4280  0.00  0.00     0.000 C
ATOM     93   O  IDS B   5     -17.923  53.364  11.8710  0.00  0.00     0.000 OA
ATOM     94   O  IDS B   5     -18.801  54.424  10.2550  0.00  0.00     0.000 OA
ENDBRANCH 83 92
BRANCH 79 95
ATOM     95  O4  SGN B   6     -20.607  55.737  14.7720  0.00  0.00     0.000 O
BRANCH 95 99
ATOM     96  C1  SGN B   6     -17.931  57.906  17.0840  0.00  0.00     0.000 C
ATOM     97  C2  SGN B   6     -17.319  56.857  16.1640  0.00  0.00     0.000 C
ATOM     98  C3  SGN B   6     -18.342  56.595  15.0580  0.00  0.00     0.000 C
ATOM     99  C4  SGN B   6     -19.600  55.982  15.7370  0.00  0.00     0.000 C
ATOM    100  C5  SGN B   6     -20.120  57.042  16.7500  0.00  0.00     0.000 C
ATOM    101  O5  SGN B   6     -19.109  57.406  17.6850  0.00  0.00     0.000 O
BRANCH 97 104
ATOM    102   N  SGN B   6     -16.106  57.629  16.4500  0.00  0.00     0.000 N
ATOM    104  HD  SGN B   6     -15.584  57.619  15.7590  0.00  0.00     0.000 HD
ATOM    104 @NS  SGN B   6     -14.662  56.811  16.4730  0.00  0.00     0.000 S
ATOM    105   O  SGN B   6     -14.935  55.428  16.1490  0.00  0.00     0.000 OA
ATOM    106   O  SGN B   6     -13.810  57.443  15.4920  0.00  0.00     0.000 OA
ATOM    107   O  SGN B   6     -14.149  56.944  17.8180  0.00  0.00     0.000 OA
ENDBRANCH 97 104
BRANCH 100 108
ATOM    108   C  SGN B   6     -21.333  56.637  17.5790  0.00  0.00     0.000 C
ATOM    109   O  SGN B   6     -22.507  57.022  16.9080  0.00  0.00     0.000 O
ATOM    110  @S  SGN B   6     -23.975  56.798  17.4210  0.00  0.00     0.000 S
ATOM    111   O  SGN B   6     -23.946  57.069  18.8380  0.00  0.00     0.000 OA
ATOM    112   O  SGN B   6     -24.811  57.745  16.7000  0.00  0.00     0.000 OA
ATOM    113   O  SGN B   6     -24.288  55.419  17.1220  0.00  0.00     0.000 OA
ENDBRANCH 100 108
ENDBRANCH 95 99
ENDBRANCH 79 95
ENDBRANCH 78 82
ENDBRANCH 58 78
ENDBRANCH 57 61
ENDBRANCH 41 57
ENDBRANCH 40 44
ENDBRANCH 20 40
ENDBRANCH 19 23
ENDBRANCH 1 19
TORSDOF 22
ENDMDL
MODEL 67
REMARK VINA RESULT:       1.7      5.786     11.192
ROOT
ATOM      1  C1  IDS B   1     -14.581  47.689  19.7140  0.00  0.00     0.000 C
ATOM      2  C2  IDS B   1     -13.102  47.650  19.4320  0.00  0.00     0.000 C
ATOM      3  C3  IDS B   1     -12.425  49.014  19.1590  0.00  0.00     0.000 C
ATOM      4  C4  IDS B   1     -13.138  50.227  19.8660  0.00  0.00     0.000 C
ATOM      5  C5  IDS B   1     -14.653  49.987  20.0800  0.00  0.00     0.000 C
ATOM      6  O5  IDS B   1     -14.865  48.719  20.6380  0.00  0.00     0.000 O
ATOM      7   O  IDS B   1     -12.391  49.194  17.7470  0.00  0.00     0.000 O
ATOM      9  HD  IDS B   1     -12.359  49.966  18.1370  0.00  0.00     0.000 HD
ATOM      9   O  IDS B   1     -12.542  50.396  21.1330  0.00  0.00     0.000 O
ATOM     11  HD  IDS B   1     -12.510  51.168  21.5230  0.00  0.00     0.000 HD
ENDROOT
BRANCH 2 11
ATOM     11   O  IDS B   1     -12.436  47.091  20.5120  0.00  0.00     0.000 O
ATOM     12  @S  IDS B   1     -10.920  46.818  20.5550  0.00  0.00     0.000 S
ATOM     13   O  IDS B   1     -10.559  46.648  19.1620  0.00  0.00     0.000 OA
ATOM     14   O  IDS B   1     -10.303  47.989  21.1510  0.00  0.00     0.000 OA
ATOM     15   O  IDS B   1     -10.756  45.624  21.3590  0.00  0.00     0.000 OA
ENDBRANCH 2 11
BRANCH 5 16
ATOM     16 @CA  IDS B   1     -15.402  51.040  20.8910  0.00  0.00     0.000 C
ATOM     17   O  IDS B   1     -15.068  52.222  20.8780  0.00  0.00     0.000 OA
ATOM     18   O  IDS B   1     -16.375  50.726  21.5720  0.00  0.00     0.000 OA
ENDBRANCH 5 16
BRANCH 1 19
ATOM     19  O4  SGN B   2     -15.253  47.910  18.4910  0.00  0.00     0.000 O
BRANCH 19 23
ATOM     20  C1  SGN B   2     -18.480  46.115  16.7250  0.00  0.00     0.000 C
ATOM     21  C2  SGN B   2     -18.580  46.520  18.1800  0.00  0.00     0.000 C
ATOM     22  C3  SGN B   2     -17.618  47.619  18.4530  0.00  0.00     0.000 C
ATOM     23  C4  SGN B   2     -16.259  47.005  18.2080  0.00  0.00     0.000 C
ATOM     24  C5  SGN B   2     -16.218  46.716  16.7470  0.00  0.00     0.000 C
ATOM     25  O5  SGN B   2     -17.141  45.733  16.4480  0.00  0.00     0.000 O
ATOM     26   O  SGN B   2     -17.737  48.019  19.7730  0.00  0.00     0.000 O
ATOM     28  HD  SGN B   2     -17.646  48.173  20.6200  0.00  0.00     0.000 HD
BRANCH 21 30
ATOM     28   N  SGN B   2     -19.353  45.465  18.7670  0.00  0.00     0.000 N
ATOM     30  HD  SGN B   2     -19.445  44.965  18.0660  0.00  0.00     0.000 HD
ATOM     30 @NS  SGN B   2     -20.963  45.672  18.8190  0.00  0.00     0.000 S
ATOM     31   O  SGN B   2     -21.308  46.853  18.1010  0.00  0.00     0.000 OA
ATOM     32   O  SGN B   2     -21.465  44.520  18.1890  0.00  0.00     0.000 OA
ATOM     33   O  SGN B   2     -21.303  45.790  20.1870  0.00  0.00     0.000 OA
ENDBRANCH 21 30
BRANCH 24 34
ATOM     34   C  SGN B   2     -14.909  46.247  16.2280  0.00  0.00     0.000 C
ATOM     35   O  SGN B   2     -14.453  47.194  15.3290  0.00  0.00     0.000 O
ATOM     36  @S  SGN B   2     -13.047  47.186  14.7390  0.00  0.00     0.000 S
ATOM     37   O  SGN B   2     -13.178  46.419  13.5170  0.00  0.00     0.000 OA
ATOM     38   O  SGN B   2     -12.681  48.566  14.5200  0.00  0.00     0.000 OA
ATOM     39   O  SGN B   2     -12.214  46.549  15.7490  0.00  0.00     0.000 OA
ENDBRANCH 24 34
BRANCH 20 40
ATOM     40  O4  IDS B   3     -18.891  47.159  15.8980  0.00  0.00     0.000 O
BRANCH 40 44
ATOM     41  C1  IDS B   3     -20.536  48.050  12.9310  0.00  0.00     0.000 C
ATOM     42  C2  IDS B   3     -20.640  46.628  13.4780  0.00  0.00     0.000 C
ATOM     43  C3  IDS B   3     -19.310  45.983  13.9140  0.00  0.00     0.000 C
ATOM     44  C4  IDS B   3     -18.417  46.996  14.6030  0.00  0.00     0.000 C
ATOM     45  C5  IDS B   3     -18.404  48.347  13.8720  0.00  0.00     0.000 C
ATOM     46  O5  IDS B   3     -19.689  48.840  13.7520  0.00  0.00     0.000 O
ATOM     47   O  IDS B   3     -18.631  45.495  12.7760  0.00  0.00     0.000 O
ATOM     49  HD  IDS B   3     -18.845  45.531  13.6150  0.00  0.00     0.000 HD
BRANCH 42 49
ATOM     49   O  IDS B   3     -21.478  46.642  14.5970  0.00  0.00     0.000 O
ATOM     50   O  IDS B   3     -23.369  46.247  13.2500  0.00  0.00     0.000 OA
ATOM     51   O  IDS B   3     -23.215  45.183  15.3590  0.00  0.00     0.000 OA
ATOM     52   O  IDS B   3     -23.528  47.519  15.2220  0.00  0.00     0.000 OA
ATOM     53  @S  IDS B   3     -22.986  46.377  14.6070  0.00  0.00     0.000 S
ENDBRANCH 42 49
BRANCH 45 54
ATOM     54 @CA  IDS B   3     -17.499  49.414  14.4840  0.00  0.00     0.000 C
ATOM     55   O  IDS B   3     -17.949  50.371  15.0540  0.00  0.00     0.000 OA
ATOM     56   O  IDS B   3     -16.317  49.321  14.4380  0.00  0.00     0.000 OA
ENDBRANCH 45 54
BRANCH 41 57
ATOM     57  O4  SGN B   4     -20.086  48.012  11.6160  0.00  0.00     0.000 O
BRANCH 57 61
ATOM     58  C1  SGN B   4     -21.422  51.796  10.6690  0.00  0.00     0.000 C
ATOM     59  C2  SGN B   4     -22.454  50.687  10.5500  0.00  0.00     0.000 C
ATOM     60  C3  SGN B   4     -21.964  49.443  11.2860  0.00  0.00     0.000 C
ATOM     61  C4  SGN B   4     -20.586  49.006  10.7760  0.00  0.00     0.000 C
ATOM     62  C5  SGN B   4     -19.654  50.213  10.8520  0.00  0.00     0.000 C
ATOM     63  O5  SGN B   4     -20.190  51.321  10.1530  0.00  0.00     0.000 O
ATOM     64   O  SGN B   4     -22.880  48.391  11.0630  0.00  0.00     0.000 O
ATOM     66  HD  SGN B   4     -22.567  47.684  10.6740  0.00  0.00     0.000 HD
BRANCH 59 68
ATOM     66   N  SGN B   4     -23.645  51.008   9.7900  0.00  0.00     0.000 N
ATOM     68  HD  SGN B   4     -22.789  51.117   9.7120  0.00  0.00     0.000 HD
ATOM     68 @NS  SGN B   4     -24.623  52.231  10.2770  0.00  0.00     0.000 S
ATOM     69   O  SGN B   4     -24.680  52.219  11.7090  0.00  0.00     0.000 OA
ATOM     70   O  SGN B   4     -24.025  53.439   9.7880  0.00  0.00     0.000 OA
ATOM     71   O  SGN B   4     -25.886  51.937   9.6710  0.00  0.00     0.000 OA
ENDBRANCH 59 68
BRANCH 62 72
ATOM     72   C  SGN B   4     -18.283  49.940  10.2530  0.00  0.00     0.000 C
ATOM     73   O  SGN B   4     -18.078  48.566  10.3980  0.00  0.00     0.000 O
ATOM     74  @S  SGN B   4     -17.275  47.636   9.4710  0.00  0.00     0.000 S
ATOM     75   O  SGN B   4     -15.952  48.139   9.4110  0.00  0.00     0.000 OA
ATOM     76   O  SGN B   4     -17.341  46.358  10.1130  0.00  0.00     0.000 OA
ATOM     77   O  SGN B   4     -17.915  47.706   8.2010  0.00  0.00     0.000 OA
ENDBRANCH 62 72
BRANCH 58 78
ATOM     78  O4  IDS B   5     -21.314  52.219  12.0130  0.00  0.00     0.000 O
BRANCH 78 82
ATOM     79  C1  IDS B   5     -20.906  53.760  15.0880  0.00  0.00     0.000 C
ATOM     80  C2  IDS B   5     -22.242  53.818  14.4110  0.00  0.00     0.000 C
ATOM     81  C3  IDS B   5     -22.175  54.267  12.9540  0.00  0.00     0.000 C
ATOM     82  C4  IDS B   5     -21.056  53.596  12.1850  0.00  0.00     0.000 C
ATOM     83  C5  IDS B   5     -19.802  53.754  12.9840  0.00  0.00     0.000 C
ATOM     84  O5  IDS B   5     -19.961  53.128  14.2430  0.00  0.00     0.000 O
ATOM     85   O  IDS B   5     -21.929  55.653  12.9430  0.00  0.00     0.000 O
ATOM     87  HD  IDS B   5     -21.491  55.024  12.5400  0.00  0.00     0.000 HD
BRANCH 80 87
ATOM     87   O  IDS B   5     -22.781  52.555  14.4160  0.00  0.00     0.000 O
ATOM     88  @S  IDS B   5     -23.284  51.773  15.6320  0.00  0.00     0.000 S
ATOM     89   O  IDS B   5     -24.204  52.641  16.2730  0.00  0.00     0.000 OA
ATOM     90   O  IDS B   5     -23.868  50.590  15.1040  0.00  0.00     0.000 OA
ATOM     91   O  IDS B   5     -22.137  51.494  16.4220  0.00  0.00     0.000 OA
ENDBRANCH 80 87
BRANCH 83 92
ATOM     92 @CA  IDS B   5     -18.547  53.293  12.2530  0.00  0.00     0.000 C
ATOM     93   O  IDS B   5     -18.246  53.758  11.1510  0.00  0.00     0.000 OA
ATOM     94   O  IDS B   5     -17.807  52.436  12.7520  0.00  0.00     0.000 OA
ENDBRANCH 83 92
BRANCH 79 95
ATOM     95  O4  SGN B   6     -20.514  55.042  15.4500  0.00  0.00     0.000 O
BRANCH 95 99
ATOM     96  C1  SGN B   6     -17.855  56.661  18.1920  0.00  0.00     0.000 C
ATOM     97  C2  SGN B   6     -17.347  55.462  17.3990  0.00  0.00     0.000 C
ATOM     98  C3  SGN B   6     -18.197  55.386  16.1300  0.00  0.00     0.000 C
ATOM     99  C4  SGN B   6     -19.659  55.098  16.5770  0.00  0.00     0.000 C
ATOM    100  C5  SGN B   6     -20.091  56.291  17.4770  0.00  0.00     0.000 C
ATOM    101  O5  SGN B   6     -19.201  56.463  18.5760  0.00  0.00     0.000 O
BRANCH 97 104
ATOM    102   N  SGN B   6     -15.994  55.950  17.6810  0.00  0.00     0.000 N
ATOM    104  HD  SGN B   6     -15.435  55.597  17.1210  0.00  0.00     0.000 HD
ATOM    104 @NS  SGN B   6     -14.864  54.840  18.1770  0.00  0.00     0.000 S
ATOM    105   O  SGN B   6     -15.501  53.541  18.1900  0.00  0.00     0.000 OA
ATOM    106   O  SGN B   6     -13.774  54.904  17.2310  0.00  0.00     0.000 OA
ATOM    107   O  SGN B   6     -14.465  55.243  19.5070  0.00  0.00     0.000 OA
ENDBRANCH 97 104
BRANCH 100 108
ATOM    108   C  SGN B   6     -21.489  56.204  18.0790  0.00  0.00     0.000 C
ATOM    109   O  SGN B   6     -22.409  56.820  17.2130  0.00  0.00     0.000 O
ATOM    110  @S  SGN B   6     -23.956  56.954  17.4590  0.00  0.00     0.000 S
ATOM    111   O  SGN B   6     -24.109  57.264  18.8600  0.00  0.00     0.000 OA
ATOM    112   O  SGN B   6     -24.415  58.038  16.6050  0.00  0.00     0.000 OA
ATOM    113   O  SGN B   6     -24.521  55.672  17.1050  0.00  0.00     0.000 OA
ENDBRANCH 100 108
ENDBRANCH 95 99
ENDBRANCH 79 95
ENDBRANCH 78 82
ENDBRANCH 58 78
ENDBRANCH 57 61
ENDBRANCH 41 57
ENDBRANCH 40 44
ENDBRANCH 20 40
ENDBRANCH 19 23
ENDBRANCH 1 19
TORSDOF 22
ENDMDL
MODEL 68
REMARK VINA RESULT:       1.7      4.970     13.175
ROOT
ATOM      1  C1  IDS B   1     -28.506  48.915  12.9900  0.00  0.00     0.000 C
ATOM      2  C2  IDS B   1     -28.644  49.823  11.7970  0.00  0.00     0.000 C
ATOM      3  C3  IDS B   1     -28.678  49.129  10.4140  0.00  0.00     0.000 C
ATOM      4  C4  IDS B   1     -29.251  47.664  10.4550  0.00  0.00     0.000 C
ATOM      5  C5  IDS B   1     -29.015  46.969  11.8190  0.00  0.00     0.000 C
ATOM      6  O5  IDS B   1     -29.392  47.822  12.8660  0.00  0.00     0.000 O
ATOM      7   O  IDS B   1     -27.349  49.144   9.9020  0.00  0.00     0.000 O
ATOM      9  HD  IDS B   1     -27.792  48.496   9.5370  0.00  0.00     0.000 HD
ATOM      9   O  IDS B   1     -30.642  47.741  10.2420  0.00  0.00     0.000 O
ATOM     11  HD  IDS B   1     -31.086  47.093   9.8770  0.00  0.00     0.000 HD
ENDROOT
BRANCH 2 11
ATOM     11   O  IDS B   1     -29.819  50.551  11.8980  0.00  0.00     0.000 O
ATOM     12  @S  IDS B   1     -29.907  52.085  11.7850  0.00  0.00     0.000 S
ATOM     13   O  IDS B   1     -28.596  52.539  12.2010  0.00  0.00     0.000 OA
ATOM     14   O  IDS B   1     -30.184  52.384  10.3910  0.00  0.00     0.000 OA
ATOM     15   O  IDS B   1     -30.982  52.487  12.6710  0.00  0.00     0.000 OA
ENDBRANCH 2 11
BRANCH 5 16
ATOM     16 @CA  IDS B   1     -29.666  45.602  12.0090  0.00  0.00     0.000 C
ATOM     17   O  IDS B   1     -30.882  45.449  11.9240  0.00  0.00     0.000 OA
ATOM     18   O  IDS B   1     -28.977  44.611  12.2390  0.00  0.00     0.000 OA
ENDBRANCH 5 16
BRANCH 1 19
ATOM     19  O4  SGN B   2     -27.166  48.473  13.0490  0.00  0.00     0.000 O
BRANCH 19 23
ATOM     20  C1  SGN B   2     -24.710  47.437  16.1560  0.00  0.00     0.000 C
ATOM     21  C2  SGN B   2     -25.799  46.474  15.7390  0.00  0.00     0.000 C
ATOM     22  C3  SGN B   2     -26.163  46.724  14.3200  0.00  0.00     0.000 C
ATOM     23  C4  SGN B   2     -26.722  48.128  14.3120  0.00  0.00     0.000 C
ATOM     24  C5  SGN B   2     -25.570  49.010  14.6500  0.00  0.00     0.000 C
ATOM     25  O5  SGN B   2     -25.170  48.765  15.9500  0.00  0.00     0.000 O
ATOM     26   O  SGN B   2     -27.130  45.816  13.9240  0.00  0.00     0.000 O
ATOM     28  HD  SGN B   2     -27.853  45.400  13.6920  0.00  0.00     0.000 HD
BRANCH 21 30
ATOM     28   N  SGN B   2     -25.840  46.100  17.1220  0.00  0.00     0.000 N
ATOM     30  HD  SGN B   2     -25.029  46.313  17.3390  0.00  0.00     0.000 HD
ATOM     30 @NS  SGN B   2     -25.517  44.547  17.4770  0.00  0.00     0.000 S
ATOM     31   O  SGN B   2     -25.093  43.876  16.2940  0.00  0.00     0.000 OA
ATOM     32   O  SGN B   2     -24.481  44.633  18.4210  0.00  0.00     0.000 OA
ATOM     33   O  SGN B   2     -26.722  43.996  17.9720  0.00  0.00     0.000 OA
ENDBRANCH 21 30
BRANCH 24 34
ATOM     34   C  SGN B   2     -25.834  50.467  14.5500  0.00  0.00     0.000 C
ATOM     35   O  SGN B   2     -25.241  51.074  15.6430  0.00  0.00     0.000 O
ATOM     36  @S  SGN B   2     -25.104  52.585  15.7930  0.00  0.00     0.000 S
ATOM     37   O  SGN B   2     -26.301  52.982  16.5080  0.00  0.00     0.000 OA
ATOM     38   O  SGN B   2     -23.884  52.820  16.5310  0.00  0.00     0.000 OA
ATOM     39   O  SGN B   2     -25.032  53.098  14.4320  0.00  0.00     0.000 OA
ENDBRANCH 24 34
BRANCH 20 40
ATOM     40  O4  IDS B   3     -23.538  47.190  15.4410  0.00  0.00     0.000 O
BRANCH 40 44
ATOM     41  C1  IDS B   3     -20.233  46.480  14.5070  0.00  0.00     0.000 C
ATOM     42  C2  IDS B   3     -21.237  45.350  14.7240  0.00  0.00     0.000 C
ATOM     43  C3  IDS B   3     -22.081  45.445  16.0100  0.00  0.00     0.000 C
ATOM     44  C4  IDS B   3     -22.484  46.879  16.2890  0.00  0.00     0.000 C
ATOM     45  C5  IDS B   3     -21.321  47.860  16.0660  0.00  0.00     0.000 C
ATOM     46  O5  IDS B   3     -20.831  47.738  14.7800  0.00  0.00     0.000 O
ATOM     47   O  IDS B   3     -21.321  44.977  17.1040  0.00  0.00     0.000 O
ATOM     49  HD  IDS B   3     -22.044  45.155  16.6620  0.00  0.00     0.000 HD
BRANCH 42 49
ATOM     49   O  IDS B   3     -22.129  45.335  13.6460  0.00  0.00     0.000 O
ATOM     50   O  IDS B   3     -20.361  45.020  12.1220  0.00  0.00     0.000 OA
ATOM     51   O  IDS B   3     -22.403  43.876  11.7690  0.00  0.00     0.000 OA
ATOM     52   O  IDS B   3     -22.291  46.220  11.5120  0.00  0.00     0.000 OA
ATOM     53  @S  IDS B   3     -21.775  45.094  12.1760  0.00  0.00     0.000 S
ENDBRANCH 42 49
BRANCH 45 54
ATOM     54 @CA  IDS B   3     -21.636  49.325  16.3600  0.00  0.00     0.000 C
ATOM     55   O  IDS B   3     -21.772  49.727  17.4840  0.00  0.00     0.000 OA
ATOM     56   O  IDS B   3     -21.735  50.122  15.4870  0.00  0.00     0.000 OA
ENDBRANCH 45 54
BRANCH 41 57
ATOM     57  O4  SGN B   4     -19.110  46.263  15.2980  0.00  0.00     0.000 O
BRANCH 57 61
ATOM     58  C1  SGN B   4     -16.681  49.077  13.5140  0.00  0.00     0.000 C
ATOM     59  C2  SGN B   4     -16.869  47.784  12.7370  0.00  0.00     0.000 C
ATOM     60  C3  SGN B   4     -18.064  47.016  13.2920  0.00  0.00     0.000 C
ATOM     61  C4  SGN B   4     -17.911  46.767  14.7970  0.00  0.00     0.000 C
ATOM     62  C5  SGN B   4     -17.637  48.110  15.4680  0.00  0.00     0.000 C
ATOM     63  O5  SGN B   4     -16.521  48.758  14.8860  0.00  0.00     0.000 O
ATOM     64   O  SGN B   4     -18.146  45.767  12.6370  0.00  0.00     0.000 O
ATOM     66  HD  SGN B   4     -18.086  45.064  13.1390  0.00  0.00     0.000 HD
BRANCH 59 68
ATOM     66   N  SGN B   4     -15.880  47.570  11.7010  0.00  0.00     0.000 N
ATOM     68  HD  SGN B   4     -15.897  47.866  12.5140  0.00  0.00     0.000 HD
ATOM     68 @NS  SGN B   4     -15.799  48.591  10.4190  0.00  0.00     0.000 S
ATOM     69   O  SGN B   4     -17.135  48.963  10.0570  0.00  0.00     0.000 OA
ATOM     70   O  SGN B   4     -15.044  49.727  10.8610  0.00  0.00     0.000 OA
ATOM     71   O  SGN B   4     -15.141  47.830   9.4010  0.00  0.00     0.000 OA
ENDBRANCH 59 68
BRANCH 62 72
ATOM     72   C  SGN B   4     -17.339  47.979  16.9540  0.00  0.00     0.000 C
ATOM     73   O  SGN B   4     -18.578  47.780  17.5680  0.00  0.00     0.000 O
ATOM     74  @S  SGN B   4     -18.872  46.967  18.8400  0.00  0.00     0.000 S
ATOM     75   O  SGN B   4     -18.098  47.525  19.8870  0.00  0.00     0.000 OA
ATOM     76   O  SGN B   4     -20.277  47.141  19.0520  0.00  0.00     0.000 OA
ATOM     77   O  SGN B   4     -18.468  45.632  18.5510  0.00  0.00     0.000 OA
ENDBRANCH 62 72
BRANCH 58 78
ATOM     78  O4  IDS B   5     -17.775  49.943  13.2890  0.00  0.00     0.000 O
BRANCH 78 82
ATOM     79  C1  IDS B   5     -20.045  52.472  12.6200  0.00  0.00     0.000 C
ATOM     80  C2  IDS B   5     -19.172  51.960  11.5150  0.00  0.00     0.000 C
ATOM     81  C3  IDS B   5     -17.691  51.900  11.8790  0.00  0.00     0.000 C
ATOM     82  C4  IDS B   5     -17.450  51.316  13.2560  0.00  0.00     0.000 C
ATOM     83  C5  IDS B   5     -18.337  52.044  14.2150  0.00  0.00     0.000 C
ATOM     84  O5  IDS B   5     -19.690  51.855  13.8440  0.00  0.00     0.000 O
ATOM     85   O  IDS B   5     -17.194  53.216  11.8800  0.00  0.00     0.000 O
ATOM     87  HD  IDS B   5     -17.147  52.622  12.5080  0.00  0.00     0.000 HD
BRANCH 80 87
ATOM     87   O  IDS B   5     -19.563  50.679  11.2160  0.00  0.00     0.000 O
ATOM     88  @S  IDS B   5     -20.763  50.258  10.3630  0.00  0.00     0.000 S
ATOM     89   O  IDS B   5     -20.613  50.964   9.1420  0.00  0.00     0.000 OA
ATOM     90   O  IDS B   5     -20.660  48.846  10.2380  0.00  0.00     0.000 OA
ATOM     91   O  IDS B   5     -21.919  50.646  11.0930  0.00  0.00     0.000 OA
ENDBRANCH 80 87
BRANCH 83 92
ATOM     92 @CA  IDS B   5     -18.075  51.698  15.6760  0.00  0.00     0.000 C
ATOM     93   O  IDS B   5     -18.966  51.228  16.3860  0.00  0.00     0.000 OA
ATOM     94   O  IDS B   5     -16.961  51.890  16.1780  0.00  0.00     0.000 OA
ENDBRANCH 83 92
BRANCH 79 95
ATOM     95  O4  SGN B   6     -19.952  53.856  12.6820  0.00  0.00     0.000 O
BRANCH 95 99
ATOM     96  C1  SGN B   6     -21.208  56.816  15.3040  0.00  0.00     0.000 C
ATOM     97  C2  SGN B   6     -20.065  55.934  15.7920  0.00  0.00     0.000 C
ATOM     98  C3  SGN B   6     -19.413  55.334  14.5460  0.00  0.00     0.000 C
ATOM     99  C4  SGN B   6     -20.479  54.428  13.8660  0.00  0.00     0.000 C
ATOM    100  C5  SGN B   6     -21.673  55.351  13.4910  0.00  0.00     0.000 C
ATOM    101  O5  SGN B   6     -22.179  56.037  14.6320  0.00  0.00     0.000 O
BRANCH 97 104
ATOM    102   N  SGN B   6     -20.300  56.842  16.9190  0.00  0.00     0.000 N
ATOM    104  HD  SGN B   6     -19.600  57.337  17.0440  0.00  0.00     0.000 HD
ATOM    104 @NS  SGN B   6     -19.347  56.659  18.2650  0.00  0.00     0.000 S
ATOM    105   O  SGN B   6     -18.409  55.591  17.9970  0.00  0.00     0.000 OA
ATOM    106   O  SGN B   6     -18.686  57.925  18.4830  0.00  0.00     0.000 OA
ATOM    107   O  SGN B   6     -20.244  56.311  19.3450  0.00  0.00     0.000 OA
ENDBRANCH 97 104
BRANCH 100 108
ATOM    108   C  SGN B   6     -22.873  54.666  12.8480  0.00  0.00     0.000 C
ATOM    109   O  SGN B   6     -23.040  55.149  11.5380  0.00  0.00     0.000 O
ATOM    110  @S  SGN B   6     -24.164  54.708  10.5310  0.00  0.00     0.000 S
ATOM    111   O  SGN B   6     -25.371  54.585  11.3130  0.00  0.00     0.000 OA
ATOM    112   O  SGN B   6     -24.261  55.764   9.5360  0.00  0.00     0.000 OA
ATOM    113   O  SGN B   6     -23.723  53.446   9.9810  0.00  0.00     0.000 OA
ENDBRANCH 100 108
ENDBRANCH 95 99
ENDBRANCH 79 95
ENDBRANCH 78 82
ENDBRANCH 58 78
ENDBRANCH 57 61
ENDBRANCH 41 57
ENDBRANCH 40 44
ENDBRANCH 20 40
ENDBRANCH 19 23
ENDBRANCH 1 19
TORSDOF 22
ENDMDL
MODEL 69
REMARK VINA RESULT:       1.8      5.104     14.073
ROOT
ATOM      1  C1  IDS B   1     -22.575  52.319  11.2620  0.00  0.00     0.000 C
ATOM      2  C2  IDS B   1     -23.485  52.942  12.2880  0.00  0.00     0.000 C
ATOM      3  C3  IDS B   1     -23.118  54.375  12.7420  0.00  0.00     0.000 C
ATOM      4  C4  IDS B   1     -22.350  55.209  11.6500  0.00  0.00     0.000 C
ATOM      5  C5  IDS B   1     -21.525  54.318  10.6900  0.00  0.00     0.000 C
ATOM      6  O5  IDS B   1     -22.308  53.249  10.2310  0.00  0.00     0.000 O
ATOM      7   O  IDS B   1     -22.345  54.255  13.9320  0.00  0.00     0.000 O
ATOM      9  HD  IDS B   1     -22.165  55.009  13.5440  0.00  0.00     0.000 HD
ATOM      9   O  IDS B   1     -23.312  55.899  10.8830  0.00  0.00     0.000 O
ATOM     11  HD  IDS B   1     -23.132  56.652  10.4960  0.00  0.00     0.000 HD
ENDROOT
BRANCH 2 11
ATOM     11   O  IDS B   1     -24.776  53.008  11.7870  0.00  0.00     0.000 O
ATOM     12  @S  IDS B   1     -26.018  52.441  12.5010  0.00  0.00     0.000 S
ATOM     13   O  IDS B   1     -25.487  51.374  13.3250  0.00  0.00     0.000 OA
ATOM     14   O  IDS B   1     -26.578  53.526  13.2870  0.00  0.00     0.000 OA
ATOM     15   O  IDS B   1     -26.907  51.990  11.4490  0.00  0.00     0.000 OA
ENDBRANCH 2 11
BRANCH 5 16
ATOM     16 @CA  IDS B   1     -20.866  55.019   9.5060  0.00  0.00     0.000 C
ATOM     17   O  IDS B   1     -21.172  56.164   9.1830  0.00  0.00     0.000 OA
ATOM     18   O  IDS B   1     -19.995  54.451   8.8510  0.00  0.00     0.000 OA
ENDBRANCH 5 16
BRANCH 1 19
ATOM     19  O4  SGN B   2     -21.382  51.934  11.9130  0.00  0.00     0.000 O
BRANCH 19 23
ATOM     20  C1  SGN B   2     -19.034  48.592  11.6410  0.00  0.00     0.000 C
ATOM     21  C2  SGN B   2     -18.912  49.654  10.5710  0.00  0.00     0.000 C
ATOM     22  C3  SGN B   2     -19.356  50.962  11.1210  0.00  0.00     0.000 C
ATOM     23  C4  SGN B   2     -20.818  50.761  11.4470  0.00  0.00     0.000 C
ATOM     24  C5  SGN B   2     -20.838  49.769  12.5580  0.00  0.00     0.000 C
ATOM     25  O5  SGN B   2     -20.380  48.552  12.0940  0.00  0.00     0.000 O
ATOM     26   O  SGN B   2     -19.206  51.943  10.1560  0.00  0.00     0.000 O
ATOM     28  HD  SGN B   2     -19.304  52.542   9.5380  0.00  0.00     0.000 HD
BRANCH 21 30
ATOM     28   N  SGN B   2     -18.149  48.488  10.2370  0.00  0.00     0.000 N
ATOM     30  HD  SGN B   2     -17.471  48.621  10.7600  0.00  0.00     0.000 HD
ATOM     30 @NS  SGN B   2     -17.162  48.596   8.9500  0.00  0.00     0.000 S
ATOM     31   O  SGN B   2     -17.147  49.942   8.4840  0.00  0.00     0.000 OA
ATOM     32   O  SGN B   2     -15.911  48.213   9.4600  0.00  0.00     0.000 OA
ATOM     33   O  SGN B   2     -17.692  47.723   7.9710  0.00  0.00     0.000 OA
ENDBRANCH 21 30
BRANCH 24 34
ATOM     34   C  SGN B   2     -22.169  49.523  13.1660  0.00  0.00     0.000 C
ATOM     35   O  SGN B   2     -22.075  48.369  13.9240  0.00  0.00     0.000 O
ATOM     36  @S  SGN B   2     -23.167  47.898  14.8770  0.00  0.00     0.000 S
ATOM     37   O  SGN B   2     -23.994  47.025  14.0670  0.00  0.00     0.000 OA
ATOM     38   O  SGN B   2     -22.504  47.219  15.9660  0.00  0.00     0.000 OA
ATOM     39   O  SGN B   2     -23.842  49.112  15.3140  0.00  0.00     0.000 OA
ENDBRANCH 24 34
BRANCH 20 40
ATOM     40  O4  IDS B   3     -18.154  48.852  12.6910  0.00  0.00     0.000 O
BRANCH 40 44
ATOM     41  C1  IDS B   3     -15.912  47.514  15.0330  0.00  0.00     0.000 C
ATOM     42  C2  IDS B   3     -16.411  46.666  13.8650  0.00  0.00     0.000 C
ATOM     43  C3  IDS B   3     -17.930  46.709  13.6110  0.00  0.00     0.000 C
ATOM     44  C4  IDS B   3     -18.475  48.108  13.8180  0.00  0.00     0.000 C
ATOM     45  C5  IDS B   3     -17.893  48.775  15.0740  0.00  0.00     0.000 C
ATOM     46  O5  IDS B   3     -16.514  48.800  15.0090  0.00  0.00     0.000 O
ATOM     47   O  IDS B   3     -18.580  45.841  14.5170  0.00  0.00     0.000 O
ATOM     49  HD  IDS B   3     -18.483  46.290  13.7820  0.00  0.00     0.000 HD
BRANCH 42 49
ATOM     49   O  IDS B   3     -15.785  47.109  12.6940  0.00  0.00     0.000 O
ATOM     50   O  IDS B   3     -13.795  45.990  13.2750  0.00  0.00     0.000 OA
ATOM     51   O  IDS B   3     -14.491  46.003  11.0120  0.00  0.00     0.000 OA
ATOM     52   O  IDS B   3     -13.747  47.993  12.0410  0.00  0.00     0.000 OA
ATOM     53  @S  IDS B   3     -14.373  46.748  12.2260  0.00  0.00     0.000 S
ENDBRANCH 42 49
BRANCH 45 54
ATOM     54 @CA  IDS B   3     -18.419  50.177  15.3730  0.00  0.00     0.000 C
ATOM     55   O  IDS B   3     -19.528  50.357  15.7990  0.00  0.00     0.000 OA
ATOM     56   O  IDS B   3     -17.740  51.137  15.2150  0.00  0.00     0.000 OA
ENDBRANCH 45 54
BRANCH 41 57
ATOM     57  O4  SGN B   4     -16.162  46.852  16.2290  0.00  0.00     0.000 O
BRANCH 57 61
ATOM     58  C1  SGN B   4     -13.902  49.185  18.7690  0.00  0.00     0.000 C
ATOM     59  C2  SGN B   4     -13.116  48.325  17.7930  0.00  0.00     0.000 C
ATOM     60  C3  SGN B   4     -14.036  47.831  16.6810  0.00  0.00     0.000 C
ATOM     61  C4  SGN B   4     -15.249  47.089  17.2550  0.00  0.00     0.000 C
ATOM     62  C5  SGN B   4     -15.910  48.002  18.2850  0.00  0.00     0.000 C
ATOM     63  O5  SGN B   4     -14.985  48.419  19.2710  0.00  0.00     0.000 O
ATOM     64   O  SGN B   4     -13.314  46.940  15.8560  0.00  0.00     0.000 O
ATOM     66  HD  SGN B   4     -13.623  46.133  15.7980  0.00  0.00     0.000 HD
BRANCH 59 68
ATOM     66   N  SGN B   4     -11.744  48.169  18.2330  0.00  0.00     0.000 N
ATOM     68  HD  SGN B   4     -12.527  48.237  18.5970  0.00  0.00     0.000 HD
ATOM     68 @NS  SGN B   4     -10.713  49.443  18.1730  0.00  0.00     0.000 S
ATOM     69   O  SGN B   4     -10.995  50.193  16.9840  0.00  0.00     0.000 OA
ATOM     70   O  SGN B   4     -10.969  50.219  19.3510  0.00  0.00     0.000 OA
ATOM     71   O  SGN B   4      -9.413  48.846  18.1560  0.00  0.00     0.000 OA
ENDBRANCH 59 68
BRANCH 62 72
ATOM     72   C  SGN B   4     -17.058  47.327  19.0210  0.00  0.00     0.000 C
ATOM     73   O  SGN B   4     -18.209  48.014  18.6300  0.00  0.00     0.000 O
ATOM     74  @S  SGN B   4     -19.633  47.450  18.4880  0.00  0.00     0.000 S
ATOM     75   O  SGN B   4     -20.005  46.920  19.7470  0.00  0.00     0.000 OA
ATOM     76   O  SGN B   4     -20.425  48.584  18.1210  0.00  0.00     0.000 OA
ATOM     77   O  SGN B   4     -19.549  46.428  17.4990  0.00  0.00     0.000 OA
ENDBRANCH 62 72
BRANCH 58 78
ATOM     78  O4  IDS B   5     -14.333  50.371  18.1340  0.00  0.00     0.000 O
BRANCH 78 82
ATOM     79  C1  IDS B   5     -15.266  53.533  17.0700  0.00  0.00     0.000 C
ATOM     80  C2  IDS B   5     -13.813  53.166  17.0920  0.00  0.00     0.000 C
ATOM     81  C3  IDS B   5     -13.351  52.558  18.4130  0.00  0.00     0.000 C
ATOM     82  C4  IDS B   5     -14.318  51.523  18.9500  0.00  0.00     0.000 C
ATOM     83  C5  IDS B   5     -15.682  52.135  18.9450  0.00  0.00     0.000 C
ATOM     84  O5  IDS B   5     -16.039  52.483  17.6210  0.00  0.00     0.000 O
ATOM     85   O  IDS B   5     -13.269  53.597  19.3590  0.00  0.00     0.000 O
ATOM     87  HD  IDS B   5     -13.699  52.847  19.4170  0.00  0.00     0.000 HD
BRANCH 80 87
ATOM     87   O  IDS B   5     -13.593  52.223  16.1180  0.00  0.00     0.000 O
ATOM     88  @S  IDS B   5     -12.880  52.430  14.7800  0.00  0.00     0.000 S
ATOM     89   O  IDS B   5     -11.629  53.009  15.1150  0.00  0.00     0.000 OA
ATOM     90   O  IDS B   5     -12.787  51.137  14.1980  0.00  0.00     0.000 OA
ATOM     91   O  IDS B   5     -13.711  53.297  14.0220  0.00  0.00     0.000 OA
ENDBRANCH 80 87
BRANCH 83 92
ATOM     92 @CA  IDS B   5     -16.740  51.281  19.6340  0.00  0.00     0.000 C
ATOM     93   O  IDS B   5     -17.786  50.978  19.0550  0.00  0.00     0.000 OA
ATOM     94   O  IDS B   5     -16.570  50.880  20.7910  0.00  0.00     0.000 OA
ENDBRANCH 83 92
BRANCH 79 95
ATOM     95  O4  SGN B   6     -15.451  54.732  17.7440  0.00  0.00     0.000 O
BRANCH 95 99
ATOM     96  C1  SGN B   6     -18.379  57.671  17.6760  0.00  0.00     0.000 C
ATOM     97  C2  SGN B   6     -18.859  56.247  17.4210  0.00  0.00     0.000 C
ATOM     98  C3  SGN B   6     -17.803  55.317  18.0220  0.00  0.00     0.000 C
ATOM     99  C4  SGN B   6     -16.488  55.545  17.2230  0.00  0.00     0.000 C
ATOM    100  C5  SGN B   6     -16.102  57.039  17.4180  0.00  0.00     0.000 C
ATOM    101  O5  SGN B   6     -17.155  57.906  17.0070  0.00  0.00     0.000 O
BRANCH 97 104
ATOM    102   N  SGN B   6     -20.059  57.048  17.1670  0.00  0.00     0.000 N
ATOM    104  HD  SGN B   6     -20.617  56.953  17.8220  0.00  0.00     0.000 HD
ATOM    104 @NS  SGN B   6     -21.494  56.240  16.9640  0.00  0.00     0.000 S
ATOM    105   O  SGN B   6     -21.229  54.827  17.1300  0.00  0.00     0.000 OA
ATOM    106   O  SGN B   6     -22.402  56.746  17.9680  0.00  0.00     0.000 OA
ATOM    107   O  SGN B   6     -21.935  56.538  15.6200  0.00  0.00     0.000 OA
ENDBRANCH 97 104
BRANCH 100 108
ATOM    108   C  SGN B   6     -14.857  57.512  16.6780  0.00  0.00     0.000 C
ATOM    109   O  SGN B   6     -13.713  57.162  17.4180  0.00  0.00     0.000 O
ATOM    110  @S  SGN B   6     -12.226  57.470  17.0120  0.00  0.00     0.000 S
ATOM    111   O  SGN B   6     -12.233  58.804  16.4610  0.00  0.00     0.000 OA
ATOM    112   O  SGN B   6     -11.442  57.386  18.2330  0.00  0.00     0.000 OA
ATOM    113   O  SGN B   6     -11.871  56.464  16.0370  0.00  0.00     0.000 OA
ENDBRANCH 100 108
ENDBRANCH 95 99
ENDBRANCH 79 95
ENDBRANCH 78 82
ENDBRANCH 58 78
ENDBRANCH 57 61
ENDBRANCH 41 57
ENDBRANCH 40 44
ENDBRANCH 20 40
ENDBRANCH 19 23
ENDBRANCH 1 19
TORSDOF 22
ENDMDL
MODEL 70
REMARK VINA RESULT:       1.8      6.187     11.798
ROOT
ATOM      1  C1  IDS B   1     -15.004  47.186  20.0920  0.00  0.00     0.000 C
ATOM      2  C2  IDS B   1     -13.552  46.988  19.7430  0.00  0.00     0.000 C
ATOM      3  C3  IDS B   1     -12.787  48.248  19.2740  0.00  0.00     0.000 C
ATOM      4  C4  IDS B   1     -13.358  49.592  19.8630  0.00  0.00     0.000 C
ATOM      5  C5  IDS B   1     -14.871  49.509  20.1790  0.00  0.00     0.000 C
ATOM      6  O5  IDS B   1     -15.150  48.338  20.8980  0.00  0.00     0.000 O
ATOM      7   O  IDS B   1     -12.823  48.258  17.8500  0.00  0.00     0.000 O
ATOM      9  HD  IDS B   1     -12.706  49.065  18.1420  0.00  0.00     0.000 HD
ATOM      9   O  IDS B   1     -12.676  49.856  21.0690  0.00  0.00     0.000 O
ATOM     11  HD  IDS B   1     -12.559  50.662  21.3610  0.00  0.00     0.000 HD
ENDROOT
BRANCH 2 11
ATOM     11   O  IDS B   1     -12.869  46.504  20.8480  0.00  0.00     0.000 O
ATOM     12  @S  IDS B   1     -11.354  46.225  20.8830  0.00  0.00     0.000 S
ATOM     13   O  IDS B   1     -11.020  45.952  19.5000  0.00  0.00     0.000 OA
ATOM     14   O  IDS B   1     -10.719  47.431  21.3820  0.00  0.00     0.000 OA
ATOM     15   O  IDS B   1     -11.182  45.090  21.7690  0.00  0.00     0.000 OA
ENDBRANCH 2 11
BRANCH 5 16
ATOM     16 @CA  IDS B   1     -15.485  50.710  20.8930  0.00  0.00     0.000 C
ATOM     17   O  IDS B   1     -16.550  50.623  21.5000  0.00  0.00     0.000 OA
ATOM     18   O  IDS B   1     -14.913  51.797  20.8880  0.00  0.00     0.000 OA
ENDBRANCH 5 16
BRANCH 1 19
ATOM     19  O4  SGN B   2     -15.728  47.320  18.8870  0.00  0.00     0.000 O
BRANCH 19 23
ATOM     20  C1  SGN B   2     -19.040  45.435  17.3930  0.00  0.00     0.000 C
ATOM     21  C2  SGN B   2     -19.111  46.041  18.7770  0.00  0.00     0.000 C
ATOM     22  C3  SGN B   2     -18.103  47.126  18.8940  0.00  0.00     0.000 C
ATOM     23  C4  SGN B   2     -16.772  46.428  18.7330  0.00  0.00     0.000 C
ATOM     24  C5  SGN B   2     -16.755  45.939  17.3260  0.00  0.00     0.000 C
ATOM     25  O5  SGN B   2     -17.719  44.963  17.1670  0.00  0.00     0.000 O
ATOM     26   O  SGN B   2     -18.194  47.708  20.1470  0.00  0.00     0.000 O
ATOM     28  HD  SGN B   2     -18.091  47.972  20.9650  0.00  0.00     0.000 HD
BRANCH 21 30
ATOM     28   N  SGN B   2     -20.497  46.408  18.7910  0.00  0.00     0.000 N
ATOM     30  HD  SGN B   2     -20.492  46.909  19.4970  0.00  0.00     0.000 HD
ATOM     30 @NS  SGN B   2     -21.522  45.389  19.5330  0.00  0.00     0.000 S
ATOM     31   O  SGN B   2     -20.776  44.362  20.1790  0.00  0.00     0.000 OA
ATOM     32   O  SGN B   2     -22.185  46.207  20.4630  0.00  0.00     0.000 OA
ATOM     33   O  SGN B   2     -22.353  44.856  18.5210  0.00  0.00     0.000 OA
ENDBRANCH 21 30
BRANCH 24 34
ATOM     34   C  SGN B   2     -15.470  45.349  16.8730  0.00  0.00     0.000 C
ATOM     35   O  SGN B   2     -14.938  46.193  15.9150  0.00  0.00     0.000 O
ATOM     36  @S  SGN B   2     -13.526  46.050  15.3590  0.00  0.00     0.000 S
ATOM     37   O  SGN B   2     -13.685  45.201  14.1960  0.00  0.00     0.000 OA
ATOM     38   O  SGN B   2     -13.066  47.383  15.0450  0.00  0.00     0.000 OA
ATOM     39   O  SGN B   2     -12.754  45.440  16.4330  0.00  0.00     0.000 OA
ENDBRANCH 24 34
BRANCH 20 40
ATOM     40  O4  IDS B   3     -19.414  46.372  16.4300  0.00  0.00     0.000 O
BRANCH 40 44
ATOM     41  C1  IDS B   3     -21.461  47.699  13.9090  0.00  0.00     0.000 C
ATOM     42  C2  IDS B   3     -22.049  46.791  14.9870  0.00  0.00     0.000 C
ATOM     43  C3  IDS B   3     -21.258  45.500  15.2750  0.00  0.00     0.000 C
ATOM     44  C4  IDS B   3     -19.765  45.758  15.2350  0.00  0.00     0.000 C
ATOM     45  C5  IDS B   3     -19.365  46.649  14.0480  0.00  0.00     0.000 C
ATOM     46  O5  IDS B   3     -20.059  47.842  14.0870  0.00  0.00     0.000 O
ATOM     47   O  IDS B   3     -21.567  44.533  14.2940  0.00  0.00     0.000 O
ATOM     49  HD  IDS B   3     -21.312  44.817  15.0710  0.00  0.00     0.000 HD
BRANCH 42 49
ATOM     49   O  IDS B   3     -22.116  47.509  16.1860  0.00  0.00     0.000 O
ATOM     50   O  IDS B   3     -24.169  48.474  15.5510  0.00  0.00     0.000 OA
ATOM     51   O  IDS B   3     -23.848  47.829  17.8060  0.00  0.00     0.000 OA
ATOM     52   O  IDS B   3     -22.642  49.647  16.9030  0.00  0.00     0.000 OA
ATOM     53  @S  IDS B   3     -23.264  48.415  16.6390  0.00  0.00     0.000 S
ENDBRANCH 42 49
BRANCH 45 54
ATOM     54 @CA  IDS B   3     -17.869  46.929  13.9160  0.00  0.00     0.000 C
ATOM     55   O  IDS B   3     -17.358  47.882  14.4380  0.00  0.00     0.000 OA
ATOM     56   O  IDS B   3     -17.156  46.200  13.3090  0.00  0.00     0.000 OA
ENDBRANCH 45 54
BRANCH 41 57
ATOM     57  O4  SGN B   4     -21.770  47.191  12.6530  0.00  0.00     0.000 O
BRANCH 57 61
ATOM     58  C1  SGN B   4     -21.546  50.925  10.9180  0.00  0.00     0.000 C
ATOM     59  C2  SGN B   4     -22.948  50.432  11.2370  0.00  0.00     0.000 C
ATOM     60  C3  SGN B   4     -22.875  49.256  12.2060  0.00  0.00     0.000 C
ATOM     61  C4  SGN B   4     -21.984  48.138  11.6520  0.00  0.00     0.000 C
ATOM     62  C5  SGN B   4     -20.638  48.755  11.2800  0.00  0.00     0.000 C
ATOM     63  O5  SGN B   4     -20.799  49.842  10.3890  0.00  0.00     0.000 O
ATOM     64   O  SGN B   4     -24.177  48.740  12.3950  0.00  0.00     0.000 O
ATOM     66  HD  SGN B   4     -24.299  47.913  12.1700  0.00  0.00     0.000 HD
BRANCH 59 68
ATOM     66   N  SGN B   4     -23.583  51.596  11.8210  0.00  0.00     0.000 N
ATOM     68  HD  SGN B   4     -23.764  50.756  11.7160  0.00  0.00     0.000 HD
ATOM     68 @NS  SGN B   4     -24.245  52.742  10.8530  0.00  0.00     0.000 S
ATOM     69   O  SGN B   4     -23.406  52.897   9.7010  0.00  0.00     0.000 OA
ATOM     70   O  SGN B   4     -25.544  52.256  10.4900  0.00  0.00     0.000 OA
ATOM     71   O  SGN B   4     -24.285  53.917  11.6700  0.00  0.00     0.000 OA
ENDBRANCH 59 68
BRANCH 62 72
ATOM     72   C  SGN B   4     -19.704  47.767  10.5980  0.00  0.00     0.000 C
ATOM     73   O  SGN B   4     -18.977  48.517   9.6700  0.00  0.00     0.000 O
ATOM     74  @S  SGN B   4     -17.534  48.275   9.1960  0.00  0.00     0.000 S
ATOM     75   O  SGN B   4     -17.483  46.972   8.6430  0.00  0.00     0.000 OA
ATOM     76   O  SGN B   4     -17.313  49.292   8.2120  0.00  0.00     0.000 OA
ATOM     77   O  SGN B   4     -16.720  48.378  10.3600  0.00  0.00     0.000 OA
ENDBRANCH 62 72
BRANCH 58 78
ATOM     78  O4  IDS B   5     -20.948  51.475  12.0740  0.00  0.00     0.000 O
BRANCH 78 82
ATOM     79  C1  IDS B   5     -19.579  53.445  14.5720  0.00  0.00     0.000 C
ATOM     80  C2  IDS B   5     -20.837  53.893  13.8930  0.00  0.00     0.000 C
ATOM     81  C3  IDS B   5     -20.759  53.863  12.3690  0.00  0.00     0.000 C
ATOM     82  C4  IDS B   5     -20.121  52.594  11.8410  0.00  0.00     0.000 C
ATOM     83  C5  IDS B   5     -18.831  52.401  12.5730  0.00  0.00     0.000 C
ATOM     84  O5  IDS B   5     -19.089  52.266  13.9580  0.00  0.00     0.000 O
ATOM     85   O  IDS B   5     -19.960  54.946  11.9580  0.00  0.00     0.000 O
ATOM     87  HD  IDS B   5     -19.875  54.107  11.7600  0.00  0.00     0.000 HD
BRANCH 80 87
ATOM     87   O  IDS B   5     -21.850  53.041  14.2590  0.00  0.00     0.000 O
ATOM     88  @S  IDS B   5     -22.953  53.308  15.2860  0.00  0.00     0.000 S
ATOM     89   O  IDS B   5     -23.540  54.535  14.8840  0.00  0.00     0.000 OA
ATOM     90   O  IDS B   5     -23.824  52.189  15.2040  0.00  0.00     0.000 OA
ATOM     91   O  IDS B   5     -22.304  53.388  16.5480  0.00  0.00     0.000 OA
ENDBRANCH 80 87
BRANCH 83 92
ATOM     92 @CA  IDS B   5     -17.978  51.264  12.0230  0.00  0.00     0.000 C
ATOM     93   O  IDS B   5     -17.518  51.313  10.8790  0.00  0.00     0.000 OA
ATOM     94   O  IDS B   5     -17.735  50.268  12.7130  0.00  0.00     0.000 OA
ENDBRANCH 83 92
BRANCH 79 95
ATOM     95  O4  SGN B   6     -18.648  54.475  14.5500  0.00  0.00     0.000 O
BRANCH 95 99
ATOM     96  C1  SGN B   6     -15.101  55.284  16.5430  0.00  0.00     0.000 C
ATOM     97  C2  SGN B   6     -15.307  53.838  16.1110  0.00  0.00     0.000 C
ATOM     98  C3  SGN B   6     -16.324  53.864  14.9700  0.00  0.00     0.000 C
ATOM     99  C4  SGN B   6     -17.660  54.396  15.5620  0.00  0.00     0.000 C
ATOM    100  C5  SGN B   6     -17.371  55.829  16.0940  0.00  0.00     0.000 C
ATOM    101  O5  SGN B   6     -16.308  55.826  17.0430  0.00  0.00     0.000 O
BRANCH 97 104
ATOM    102   N  SGN B   6     -14.784  52.892  17.1020  0.00  0.00     0.000 N
ATOM    104  HD  SGN B   6     -14.122  53.253  17.5280  0.00  0.00     0.000 HD
ATOM    104 @NS  SGN B   6     -13.230  52.346  16.8980  0.00  0.00     0.000 S
ATOM    105   O  SGN B   6     -12.687  52.996  15.7250  0.00  0.00     0.000 OA
ATOM    106   O  SGN B   6     -12.506  52.694  18.0980  0.00  0.00     0.000 OA
ATOM    107   O  SGN B   6     -13.331  50.917  16.7070  0.00  0.00     0.000 OA
ENDBRANCH 97 104
BRANCH 100 108
ATOM    108   C  SGN B   6     -18.536  56.540  16.7720  0.00  0.00     0.000 C
ATOM    109   O  SGN B   6     -19.049  55.724  17.7960  0.00  0.00     0.000 O
ATOM    110  @S  SGN B   6     -20.258  56.079  18.7360  0.00  0.00     0.000 S
ATOM    111   O  SGN B   6     -21.239  56.720  17.8940  0.00  0.00     0.000 OA
ATOM    112   O  SGN B   6     -20.740  54.818  19.2770  0.00  0.00     0.000 OA
ATOM    113   O  SGN B   6     -19.722  56.964  19.7450  0.00  0.00     0.000 OA
ENDBRANCH 100 108
ENDBRANCH 95 99
ENDBRANCH 79 95
ENDBRANCH 78 82
ENDBRANCH 58 78
ENDBRANCH 57 61
ENDBRANCH 41 57
ENDBRANCH 40 44
ENDBRANCH 20 40
ENDBRANCH 19 23
ENDBRANCH 1 19
TORSDOF 22
ENDMDL
MODEL 71
REMARK VINA RESULT:       1.9      6.153     10.887
ROOT
ATOM      1  C1  IDS B   1     -15.326  46.911  19.3540  0.00  0.00     0.000 C
ATOM      2  C2  IDS B   1     -13.971  47.066  18.7150  0.00  0.00     0.000 C
ATOM      3  C3  IDS B   1     -13.531  48.514  18.3930  0.00  0.00     0.000 C
ATOM      4  C4  IDS B   1     -14.164  49.594  19.3480  0.00  0.00     0.000 C
ATOM      5  C5  IDS B   1     -15.542  49.162  19.9080  0.00  0.00     0.000 C
ATOM      6  O5  IDS B   1     -15.472  47.851  20.3990  0.00  0.00     0.000 O
ATOM      7   O  IDS B   1     -13.876  48.768  17.0350  0.00  0.00     0.000 O
ATOM      9  HD  IDS B   1     -13.826  49.518  17.4660  0.00  0.00     0.000 HD
ATOM      9   O  IDS B   1     -13.287  49.769  20.4390  0.00  0.00     0.000 O
ATOM     11  HD  IDS B   1     -13.238  50.518  20.8700  0.00  0.00     0.000 HD
ENDROOT
BRANCH 2 11
ATOM     11   O  IDS B   1     -12.999  46.537  19.5490  0.00  0.00     0.000 O
ATOM     12  @S  IDS B   1     -12.471  45.092  19.4670  0.00  0.00     0.000 S
ATOM     13   O  IDS B   1     -13.572  44.354  18.8820  0.00  0.00     0.000 OA
ATOM     14   O  IDS B   1     -11.302  45.124  18.6060  0.00  0.00     0.000 OA
ATOM     15   O  IDS B   1     -12.157  44.707  20.8280  0.00  0.00     0.000 OA
ENDBRANCH 2 11
BRANCH 5 16
ATOM     16 @CA  IDS B   1     -16.166  50.074  20.9600  0.00  0.00     0.000 C
ATOM     17   O  IDS B   1     -17.180  49.749  21.5750  0.00  0.00     0.000 OA
ATOM     18   O  IDS B   1     -15.656  51.159  21.2270  0.00  0.00     0.000 OA
ENDBRANCH 5 16
BRANCH 1 19
ATOM     19  O4  SGN B   2     -16.305  47.112  18.3560  0.00  0.00     0.000 O
BRANCH 19 23
ATOM     20  C1  SGN B   2     -19.803  45.195  17.4340  0.00  0.00     0.000 C
ATOM     21  C2  SGN B   2     -19.683  45.881  18.7760  0.00  0.00     0.000 C
ATOM     22  C3  SGN B   2     -18.659  46.955  18.6920  0.00  0.00     0.000 C
ATOM     23  C4  SGN B   2     -17.367  46.228  18.3970  0.00  0.00     0.000 C
ATOM     24  C5  SGN B   2     -17.543  45.658  17.0320  0.00  0.00     0.000 C
ATOM     25  O5  SGN B   2     -18.528  44.690  17.0630  0.00  0.00     0.000 O
ATOM     26   O  SGN B   2     -18.577  47.611  19.9080  0.00  0.00     0.000 O
ATOM     28  HD  SGN B   2     -18.363  47.922  20.6880  0.00  0.00     0.000 HD
BRANCH 21 30
ATOM     28   N  SGN B   2     -20.545  44.847  19.2700  0.00  0.00     0.000 N
ATOM     30  HD  SGN B   2     -20.939  44.640  18.5270  0.00  0.00     0.000 HD
ATOM     30 @NS  SGN B   2     -21.975  45.313  19.8850  0.00  0.00     0.000 S
ATOM     31   O  SGN B   2     -22.150  46.708  19.6620  0.00  0.00     0.000 OA
ATOM     32   O  SGN B   2     -22.909  44.554  19.1610  0.00  0.00     0.000 OA
ATOM     33   O  SGN B   2     -21.925  45.020  21.2680  0.00  0.00     0.000 OA
ENDBRANCH 21 30
BRANCH 24 34
ATOM     34   C  SGN B   2     -16.335  45.022  16.4490  0.00  0.00     0.000 C
ATOM     35   O  SGN B   2     -15.772  45.928  15.5670  0.00  0.00     0.000 O
ATOM     36  @S  SGN B   2     -14.402  45.736  14.9260  0.00  0.00     0.000 S
ATOM     37   O  SGN B   2     -14.684  45.047  13.6830  0.00  0.00     0.000 OA
ATOM     38   O  SGN B   2     -13.841  47.054  14.7430  0.00  0.00     0.000 OA
ATOM     39   O  SGN B   2     -13.642  44.941  15.8810  0.00  0.00     0.000 OA
ENDBRANCH 24 34
BRANCH 20 40
ATOM     40  O4  IDS B   3     -20.295  46.079  16.4750  0.00  0.00     0.000 O
BRANCH 40 44
ATOM     41  C1  IDS B   3     -22.565  47.072  13.9920  0.00  0.00     0.000 C
ATOM     42  C2  IDS B   3     -22.976  46.058  15.0570  0.00  0.00     0.000 C
ATOM     43  C3  IDS B   3     -21.970  44.920  15.3170  0.00  0.00     0.000 C
ATOM     44  C4  IDS B   3     -20.545  45.434  15.2710  0.00  0.00     0.000 C
ATOM     45  C5  IDS B   3     -20.317  46.400  14.0980  0.00  0.00     0.000 C
ATOM     46  O5  IDS B   3     -21.208  47.453  14.1630  0.00  0.00     0.000 O
ATOM     47   O  IDS B   3     -22.116  43.930  14.3200  0.00  0.00     0.000 O
ATOM     49  HD  IDS B   3     -21.907  44.242  15.1010  0.00  0.00     0.000 HD
BRANCH 42 49
ATOM     49   O  IDS B   3     -23.155  46.734  16.2690  0.00  0.00     0.000 O
ATOM     50   O  IDS B   3     -25.355  47.327  15.6710  0.00  0.00     0.000 OA
ATOM     51   O  IDS B   3     -24.896  46.714  17.9110  0.00  0.00     0.000 OA
ATOM     52   O  IDS B   3     -24.045  48.732  17.0300  0.00  0.00     0.000 OA
ATOM     53  @S  IDS B   3     -24.441  47.413  16.7500  0.00  0.00     0.000 S
ENDBRANCH 42 49
BRANCH 45 54
ATOM     54 @CA  IDS B   3     -18.894  46.937  13.9610  0.00  0.00     0.000 C
ATOM     55   O  IDS B   3     -18.544  47.944  14.5150  0.00  0.00     0.000 OA
ATOM     56   O  IDS B   3     -18.078  46.365  13.3180  0.00  0.00     0.000 OA
ENDBRANCH 45 54
BRANCH 41 57
ATOM     57  O4  SGN B   4     -22.794  46.540  12.7290  0.00  0.00     0.000 O
BRANCH 57 61
ATOM     58  C1  SGN B   4     -23.582  50.266  11.1510  0.00  0.00     0.000 C
ATOM     59  C2  SGN B   4     -24.801  49.409  11.4500  0.00  0.00     0.000 C
ATOM     60  C3  SGN B   4     -24.409  48.256  12.3690  0.00  0.00     0.000 C
ATOM     61  C4  SGN B   4     -23.261  47.436  11.7690  0.00  0.00     0.000 C
ATOM     62  C5  SGN B   4     -22.130  48.400  11.4220  0.00  0.00     0.000 C
ATOM     63  O5  SGN B   4     -22.583  49.442  10.5760  0.00  0.00     0.000 O
ATOM     64   O  SGN B   4     -25.526  47.408  12.5370  0.00  0.00     0.000 O
ATOM     66  HD  SGN B   4     -25.429  46.587  12.2780  0.00  0.00     0.000 HD
BRANCH 59 68
ATOM     66   N  SGN B   4     -25.862  49.976  10.6440  0.00  0.00     0.000 N
ATOM     68  HD  SGN B   4     -24.997  49.946  10.6300  0.00  0.00     0.000 HD
ATOM     68 @NS  SGN B   4     -26.665  51.308  11.1630  0.00  0.00     0.000 S
ATOM     69   O  SGN B   4     -26.833  51.207  12.5830  0.00  0.00     0.000 OA
ATOM     70   O  SGN B   4     -25.844  52.431  10.8140  0.00  0.00     0.000 OA
ATOM     71   O  SGN B   4     -27.909  51.271  10.4550  0.00  0.00     0.000 OA
ENDBRANCH 59 68
BRANCH 62 72
ATOM     72   C  SGN B   4     -20.976  47.722  10.6990  0.00  0.00     0.000 C
ATOM     73   O  SGN B   4     -20.286  48.748  10.0480  0.00  0.00     0.000 O
ATOM     74  @S  SGN B   4     -18.779  48.817   9.7450  0.00  0.00     0.000 S
ATOM     75   O  SGN B   4     -18.454  47.684   8.9610  0.00  0.00     0.000 OA
ATOM     76   O  SGN B   4     -18.623  50.042   9.0210  0.00  0.00     0.000 OA
ATOM     77   O  SGN B   4     -18.126  48.778  11.0100  0.00  0.00     0.000 OA
ENDBRANCH 62 72
BRANCH 58 78
ATOM     78  O4  IDS B   5     -23.137  50.908  12.3280  0.00  0.00     0.000 O
BRANCH 78 82
ATOM     79  C1  IDS B   5     -22.358  53.084  14.9090  0.00  0.00     0.000 C
ATOM     80  C2  IDS B   5     -23.692  53.195  14.2340  0.00  0.00     0.000 C
ATOM     81  C3  IDS B   5     -23.610  53.244  12.7110  0.00  0.00     0.000 C
ATOM     82  C4  IDS B   5     -22.649  52.219  12.1440  0.00  0.00     0.000 C
ATOM     83  C5  IDS B   5     -21.355  52.359  12.8810  0.00  0.00     0.000 C
ATOM     84  O5  IDS B   5     -21.565  52.108  14.2570  0.00  0.00     0.000 O
ATOM     85   O  IDS B   5     -23.139  54.519  12.3470  0.00  0.00     0.000 O
ATOM     87  HD  IDS B   5     -22.827  53.743  12.1190  0.00  0.00     0.000 HD
BRANCH 80 87
ATOM     87   O  IDS B   5     -24.431  52.085  14.5600  0.00  0.00     0.000 O
ATOM     88  @S  IDS B   5     -25.429  51.948  15.7130  0.00  0.00     0.000 S
ATOM     89   O  IDS B   5     -26.324  53.037  15.5560  0.00  0.00     0.000 OA
ATOM     90   O  IDS B   5     -26.028  50.671  15.5450  0.00  0.00     0.000 OA
ATOM     91   O  IDS B   5     -24.662  52.024  16.9070  0.00  0.00     0.000 OA
ENDBRANCH 80 87
BRANCH 83 92
ATOM     92 @CA  IDS B   5     -20.223  51.522  12.2970  0.00  0.00     0.000 C
ATOM     93   O  IDS B   5     -19.833  50.498  12.8650  0.00  0.00     0.000 OA
ATOM     94   O  IDS B   5     -19.670  51.858  11.2430  0.00  0.00     0.000 OA
ENDBRANCH 83 92
BRANCH 79 95
ATOM     95  O4  SGN B   6     -21.745  54.330  14.9320  0.00  0.00     0.000 O
BRANCH 95 99
ATOM     96  C1  SGN B   6     -18.239  55.542  16.7890  0.00  0.00     0.000 C
ATOM     97  C2  SGN B   6     -18.490  54.039  16.7540  0.00  0.00     0.000 C
ATOM     98  C3  SGN B   6     -19.464  53.785  15.6040  0.00  0.00     0.000 C
ATOM     99  C4  SGN B   6     -20.797  54.499  15.9700  0.00  0.00     0.000 C
ATOM    100  C5  SGN B   6     -20.468  56.013  16.1090  0.00  0.00     0.000 C
ATOM    101  O5  SGN B   6     -19.440  56.235  17.0700  0.00  0.00     0.000 O
BRANCH 97 104
ATOM    102   N  SGN B   6     -17.041  53.885  16.9150  0.00  0.00     0.000 N
ATOM    104  HD  SGN B   6     -16.802  53.093  16.6600  0.00  0.00     0.000 HD
ATOM    104 @NS  SGN B   6     -16.504  52.755  18.0050  0.00  0.00     0.000 S
ATOM    105   O  SGN B   6     -17.666  52.103  18.5690  0.00  0.00     0.000 OA
ATOM    106   O  SGN B   6     -15.665  51.836  17.2730  0.00  0.00     0.000 OA
ATOM    107   O  SGN B   6     -15.772  53.488  19.0140  0.00  0.00     0.000 OA
ENDBRANCH 97 104
BRANCH 100 108
ATOM    108   C  SGN B   6     -21.626  56.916  16.5170  0.00  0.00     0.000 C
ATOM    109   O  SGN B   6     -22.701  56.125  16.9580  0.00  0.00     0.000 O
ATOM    110  @S  SGN B   6     -24.090  56.660  17.4620  0.00  0.00     0.000 S
ATOM    111   O  SGN B   6     -24.434  57.755  16.5870  0.00  0.00     0.000 OA
ATOM    112   O  SGN B   6     -25.025  55.552  17.3460  0.00  0.00     0.000 OA
ATOM    113   O  SGN B   6     -23.875  57.082  18.8280  0.00  0.00     0.000 OA
ENDBRANCH 100 108
ENDBRANCH 95 99
ENDBRANCH 79 95
ENDBRANCH 78 82
ENDBRANCH 58 78
ENDBRANCH 57 61
ENDBRANCH 41 57
ENDBRANCH 40 44
ENDBRANCH 20 40
ENDBRANCH 19 23
ENDBRANCH 1 19
TORSDOF 22
ENDMDL
MODEL 72
REMARK VINA RESULT:       2.0      4.055      7.365
ROOT
ATOM      1  C1  IDS B   1     -16.647  50.405  16.4800  0.00  0.00     0.000 C
ATOM      2  C2  IDS B   1     -15.861  49.129  16.6360  0.00  0.00     0.000 C
ATOM      3  C3  IDS B   1     -15.032  48.686  15.4070  0.00  0.00     0.000 C
ATOM      4  C4  IDS B   1     -14.567  49.880  14.4930  0.00  0.00     0.000 C
ATOM      5  C5  IDS B   1     -15.532  51.089  14.5540  0.00  0.00     0.000 C
ATOM      6  O5  IDS B   1     -15.834  51.398  15.8880  0.00  0.00     0.000 O
ATOM      7   O  IDS B   1     -15.827  47.760  14.6730  0.00  0.00     0.000 O
ATOM      9  HD  IDS B   1     -15.246  48.125  14.1450  0.00  0.00     0.000 HD
ATOM      9   O  IDS B   1     -13.305  50.308  14.9560  0.00  0.00     0.000 O
ATOM     11  HD  IDS B   1     -12.724  50.673  14.4270  0.00  0.00     0.000 HD
ENDROOT
BRANCH 2 11
ATOM     11   O  IDS B   1     -14.966  49.259  17.6870  0.00  0.00     0.000 O
ATOM     12  @S  IDS B   1     -14.522  48.101  18.6020  0.00  0.00     0.000 S
ATOM     13   O  IDS B   1     -15.634  47.173  18.5510  0.00  0.00     0.000 OA
ATOM     14   O  IDS B   1     -13.311  47.551  18.0190  0.00  0.00     0.000 OA
ATOM     15   O  IDS B   1     -14.301  48.691  19.9070  0.00  0.00     0.000 OA
ENDBRANCH 2 11
BRANCH 5 16
ATOM     16 @CA  IDS B   1     -15.090  52.352  13.8200  0.00  0.00     0.000 C
ATOM     17   O  IDS B   1     -15.904  53.162  13.3840  0.00  0.00     0.000 OA
ATOM     18   O  IDS B   1     -13.896  52.594  13.6610  0.00  0.00     0.000 OA
ENDBRANCH 5 16
BRANCH 1 19
ATOM     19  O4  SGN B   2     -17.773  50.128  15.6730  0.00  0.00     0.000 O
BRANCH 19 23
ATOM     20  C1  SGN B   2     -21.714  51.211  15.8940  0.00  0.00     0.000 C
ATOM     21  C2  SGN B   2     -20.666  52.298  15.7960  0.00  0.00     0.000 C
ATOM     22  C3  SGN B   2     -19.442  51.748  15.1580  0.00  0.00     0.000 C
ATOM     23  C4  SGN B   2     -18.957  50.685  16.1170  0.00  0.00     0.000 C
ATOM     24  C5  SGN B   2     -20.003  49.625  16.0860  0.00  0.00     0.000 C
ATOM     25  O5  SGN B   2     -21.174  50.120  16.6260  0.00  0.00     0.000 O
ATOM     26   O  SGN B   2     -18.497  52.752  15.0310  0.00  0.00     0.000 O
ATOM     28  HD  SGN B   2     -17.822  53.290  15.0990  0.00  0.00     0.000 HD
BRANCH 21 30
ATOM     28   N  SGN B   2     -20.704  53.720  15.6180  0.00  0.00     0.000 N
ATOM     30  HD  SGN B   2     -20.412  53.958  16.3970  0.00  0.00     0.000 HD
ATOM     30 @NS  SGN B   2     -22.114  54.465  15.9320  0.00  0.00     0.000 S
ATOM     31   O  SGN B   2     -23.026  53.524  16.4910  0.00  0.00     0.000 OA
ATOM     32   O  SGN B   2     -21.763  55.458  16.8620  0.00  0.00     0.000 OA
ATOM     33   O  SGN B   2     -22.586  54.958  14.6940  0.00  0.00     0.000 OA
ENDBRANCH 21 30
BRANCH 24 34
ATOM     34   C  SGN B   2     -19.675  48.387  16.8370  0.00  0.00     0.000 C
ATOM     35   O  SGN B   2     -20.031  48.593  18.1570  0.00  0.00     0.000 O
ATOM     36  @S  SGN B   2     -20.052  47.486  19.2050  0.00  0.00     0.000 S
ATOM     37   O  SGN B   2     -18.728  47.528  19.7930  0.00  0.00     0.000 OA
ATOM     38   O  SGN B   2     -21.108  47.812  20.1340  0.00  0.00     0.000 OA
ATOM     39   O  SGN B   2     -20.328  46.264  18.4630  0.00  0.00     0.000 OA
ENDBRANCH 24 34
BRANCH 20 40
ATOM     40  O4  IDS B   3     -22.125  50.814  14.6220  0.00  0.00     0.000 O
BRANCH 40 44
ATOM     41  C1  IDS B   3     -24.021  50.136  11.7490  0.00  0.00     0.000 C
ATOM     42  C2  IDS B   3     -23.107  51.359  11.8050  0.00  0.00     0.000 C
ATOM     43  C3  IDS B   3     -23.211  52.211  13.0850  0.00  0.00     0.000 C
ATOM     44  C4  IDS B   3     -23.375  51.333  14.3090  0.00  0.00     0.000 C
ATOM     45  C5  IDS B   3     -24.375  50.191  14.0710  0.00  0.00     0.000 C
ATOM     46  O5  IDS B   3     -23.988  49.433  12.9830  0.00  0.00     0.000 O
ATOM     47   O  IDS B   3     -24.337  53.058  12.9930  0.00  0.00     0.000 O
ATOM     49  HD  IDS B   3     -23.553  52.811  13.2660  0.00  0.00     0.000 HD
BRANCH 42 49
ATOM     49   O  IDS B   3     -21.780  50.927  11.7030  0.00  0.00     0.000 O
ATOM     50   O  IDS B   3     -21.936  50.838   9.3550  0.00  0.00     0.000 OA
ATOM     51   O  IDS B   3     -19.934  51.620  10.3470  0.00  0.00     0.000 OA
ATOM     52   O  IDS B   3     -20.551  49.349  10.5370  0.00  0.00     0.000 OA
ATOM     53  @S  IDS B   3     -21.004  50.673  10.4080  0.00  0.00     0.000 S
ENDBRANCH 42 49
BRANCH 45 54
ATOM     54 @CA  IDS B   3     -24.623  49.279  15.2700  0.00  0.00     0.000 C
ATOM     55   O  IDS B   3     -25.599  49.398  15.9620  0.00  0.00     0.000 OA
ATOM     56   O  IDS B   3     -23.871  48.404  15.5470  0.00  0.00     0.000 OA
ENDBRANCH 45 54
BRANCH 41 57
ATOM     57  O4  SGN B   4     -25.311  50.533  11.4190  0.00  0.00     0.000 O
BRANCH 57 61
ATOM     58  C1  SGN B   4     -28.740  48.734  10.0050  0.00  0.00     0.000 C
ATOM     59  C2  SGN B   4     -27.808  47.836  10.8000  0.00  0.00     0.000 C
ATOM     60  C3  SGN B   4     -26.810  48.687  11.5800  0.00  0.00     0.000 C
ATOM     61  C4  SGN B   4     -26.043  49.632  10.6470  0.00  0.00     0.000 C
ATOM     62  C5  SGN B   4     -27.067  50.418   9.8330  0.00  0.00     0.000 C
ATOM     63  O5  SGN B   4     -27.957  49.553   9.1530  0.00  0.00     0.000 O
ATOM     64   O  SGN B   4     -25.882  47.832  12.2150  0.00  0.00     0.000 O
ATOM     66  HD  SGN B   4     -25.050  47.936  11.9960  0.00  0.00     0.000 HD
BRANCH 59 68
ATOM     66   N  SGN B   4     -28.690  47.089  11.6740  0.00  0.00     0.000 N
ATOM     68  HD  SGN B   4     -27.837  47.192  11.5650  0.00  0.00     0.000 HD
ATOM     68 @NS  SGN B   4     -29.472  45.762  11.1110  0.00  0.00     0.000 S
ATOM     69   O  SGN B   4     -29.865  46.013   9.7550  0.00  0.00     0.000 OA
ATOM     70   O  SGN B   4     -28.532  44.681  11.1900  0.00  0.00     0.000 OA
ATOM     71   O  SGN B   4     -30.590  45.609  11.9910  0.00  0.00     0.000 OA
ENDBRANCH 59 68
BRANCH 62 72
ATOM     72   C  SGN B   4     -26.427  51.304   8.7760  0.00  0.00     0.000 C
ATOM     73   O  SGN B   4     -27.241  52.436   8.6930  0.00  0.00     0.000 O
ATOM     74  @S  SGN B   4     -26.813  53.874   8.3510  0.00  0.00     0.000 S
ATOM     75   O  SGN B   4     -26.203  53.841   7.0730  0.00  0.00     0.000 OA
ATOM     76   O  SGN B   4     -28.038  54.614   8.3490  0.00  0.00     0.000 OA
ATOM     77   O  SGN B   4     -25.882  54.253   9.3600  0.00  0.00     0.000 OA
ENDBRANCH 62 72
BRANCH 58 78
ATOM     78  O4  IDS B   5     -29.552  49.491  10.8800  0.00  0.00     0.000 O
BRANCH 78 82
ATOM     79  C1  IDS B   5     -32.181  50.566  12.8620  0.00  0.00     0.000 C
ATOM     80  C2  IDS B   5     -32.069  49.112  12.5190  0.00  0.00     0.000 C
ATOM     81  C3  IDS B   5     -31.872  48.843  11.0290  0.00  0.00     0.000 C
ATOM     82  C4  IDS B   5     -30.850  49.767  10.3990  0.00  0.00     0.000 C
ATOM     83  C5  IDS B   5     -31.215  51.167  10.7760  0.00  0.00     0.000 C
ATOM     84  O5  IDS B   5     -31.179  51.302  12.1850  0.00  0.00     0.000 O
ATOM     85   O  IDS B   5     -33.103  49.067  10.3850  0.00  0.00     0.000 O
ATOM     87  HD  IDS B   5     -32.329  49.409  10.2020  0.00  0.00     0.000 HD
BRANCH 80 87
ATOM     87   O  IDS B   5     -30.972  48.600  13.1660  0.00  0.00     0.000 O
ATOM     88  @S  IDS B   5     -30.941  47.944  14.5490  0.00  0.00     0.000 S
ATOM     89   O  IDS B   5     -31.928  46.928  14.4960  0.00  0.00     0.000 OA
ATOM     90   O  IDS B   5     -29.614  47.462  14.7080  0.00  0.00     0.000 OA
ATOM     91   O  IDS B   5     -31.250  48.974  15.4790  0.00  0.00     0.000 OA
ENDBRANCH 80 87
BRANCH 83 92
ATOM     92 @CA  IDS B   5     -30.387  52.231  10.0640  0.00  0.00     0.000 C
ATOM     93   O  IDS B   5     -29.679  53.015  10.6990  0.00  0.00     0.000 OA
ATOM     94   O  IDS B   5     -30.416  52.329   8.8310  0.00  0.00     0.000 OA
ENDBRANCH 83 92
BRANCH 79 95
ATOM     95  O4  SGN B   6     -33.459  51.017  12.5600  0.00  0.00     0.000 O
BRANCH 95 99
ATOM     96  C1  SGN B   6     -35.909  54.085  13.9010  0.00  0.00     0.000 C
ATOM     97  C2  SGN B   6     -34.450  54.455  13.6570  0.00  0.00     0.000 C
ATOM     98  C3  SGN B   6     -33.892  53.414  12.6860  0.00  0.00     0.000 C
ATOM     99  C4  SGN B   6     -33.938  52.040  13.4140  0.00  0.00     0.000 C
ATOM    100  C5  SGN B   6     -35.432  51.761  13.7450  0.00  0.00     0.000 C
ATOM    101  O5  SGN B   6     -35.999  52.816  14.5180  0.00  0.00     0.000 O
BRANCH 97 104
ATOM    102   N  SGN B   6     -34.476  55.844  13.1900  0.00  0.00     0.000 N
ATOM    104  HD  SGN B   6     -33.674  56.170  13.2030  0.00  0.00     0.000 HD
ATOM    104 @NS  SGN B   6     -34.047  57.027  14.2720  0.00  0.00     0.000 S
ATOM    105   O  SGN B   6     -33.683  56.376  15.5120  0.00  0.00     0.000 OA
ATOM    106   O  SGN B   6     -32.938  57.743  13.6860  0.00  0.00     0.000 OA
ATOM    107   O  SGN B   6     -35.217  57.860  14.4380  0.00  0.00     0.000 OA
ENDBRANCH 97 104
BRANCH 100 108
ATOM    108   C  SGN B   6     -35.720  50.477  14.5140  0.00  0.00     0.000 C
ATOM    109   O  SGN B   6     -36.045  49.453  13.6060  0.00  0.00     0.000 O
ATOM    110  @S  SGN B   6     -36.415  47.973  13.9840  0.00  0.00     0.000 S
ATOM    111   O  SGN B   6     -37.251  48.060  15.1570  0.00  0.00     0.000 OA
ATOM    112   O  SGN B   6     -37.129  47.424  12.8420  0.00  0.00     0.000 OA
ATOM    113   O  SGN B   6     -35.157  47.309  14.2410  0.00  0.00     0.000 OA
ENDBRANCH 100 108
ENDBRANCH 95 99
ENDBRANCH 79 95
ENDBRANCH 78 82
ENDBRANCH 58 78
ENDBRANCH 57 61
ENDBRANCH 41 57
ENDBRANCH 40 44
ENDBRANCH 20 40
ENDBRANCH 19 23
ENDBRANCH 1 19
TORSDOF 22
ENDMDL
MODEL 73
REMARK VINA RESULT:       2.0      5.401     14.641
ROOT
ATOM      1  C1  IDS B   1     -22.830  53.506  13.0520  0.00  0.00     0.000 C
ATOM      2  C2  IDS B   1     -22.894  54.680  13.9930  0.00  0.00     0.000 C
ATOM      3  C3  IDS B   1     -22.161  55.962  13.5330  0.00  0.00     0.000 C
ATOM      4  C4  IDS B   1     -22.073  56.114  11.9680  0.00  0.00     0.000 C
ATOM      5  C5  IDS B   1     -22.072  54.750  11.2360  0.00  0.00     0.000 C
ATOM      6  O5  IDS B   1     -23.099  53.935  11.7330  0.00  0.00     0.000 O
ATOM      7   O  IDS B   1     -20.863  55.940  14.1180  0.00  0.00     0.000 O
ATOM      9  HD  IDS B   1     -20.851  56.433  13.4060  0.00  0.00     0.000 HD
ATOM      9   O  IDS B   1     -23.208  56.834  11.5430  0.00  0.00     0.000 O
ATOM     11  HD  IDS B   1     -23.196  57.327  10.8310  0.00  0.00     0.000 HD
ENDROOT
BRANCH 2 11
ATOM     11   O  IDS B   1     -24.217  55.038  14.2020  0.00  0.00     0.000 O
ATOM     12  @S  IDS B   1     -24.909  55.051  15.5790  0.00  0.00     0.000 S
ATOM     13   O  IDS B   1     -24.169  54.071  16.3480  0.00  0.00     0.000 OA
ATOM     14   O  IDS B   1     -24.764  56.396  16.1050  0.00  0.00     0.000 OA
ATOM     15   O  IDS B   1     -26.290  54.689  15.3300  0.00  0.00     0.000 OA
ENDBRANCH 2 11
BRANCH 5 16
ATOM     16 @CA  IDS B   1     -22.141  54.794   9.7120  0.00  0.00     0.000 C
ATOM     17   O  IDS B   1     -22.472  55.814   9.1110  0.00  0.00     0.000 OA
ATOM     18   O  IDS B   1     -21.851  53.803   9.0460  0.00  0.00     0.000 OA
ENDBRANCH 5 16
BRANCH 1 19
ATOM     19  O4  SGN B   2     -21.538  52.942  13.1440  0.00  0.00     0.000 O
BRANCH 19 23
ATOM     20  C1  SGN B   2     -20.273  49.049  13.1940  0.00  0.00     0.000 C
ATOM     21  C2  SGN B   2     -20.411  49.751  11.8610  0.00  0.00     0.000 C
ATOM     22  C3  SGN B   2     -20.297  51.220  12.0620  0.00  0.00     0.000 C
ATOM     23  C4  SGN B   2     -21.482  51.578  12.9290  0.00  0.00     0.000 C
ATOM     24  C5  SGN B   2     -21.223  50.917  14.2380  0.00  0.00     0.000 C
ATOM     25  O5  SGN B   2     -21.269  49.546  14.0770  0.00  0.00     0.000 O
ATOM     26   O  SGN B   2     -20.382  51.861  10.8380  0.00  0.00     0.000 O
ATOM     28  HD  SGN B   2     -20.613  52.307  10.1330  0.00  0.00     0.000 HD
BRANCH 21 30
ATOM     28   N  SGN B   2     -19.366  49.120  11.1090  0.00  0.00     0.000 N
ATOM     30  HD  SGN B   2     -19.381  49.632  10.4100  0.00  0.00     0.000 HD
ATOM     30 @NS  SGN B   2     -19.788  47.856  10.1800  0.00  0.00     0.000 S
ATOM     31   O  SGN B   2     -21.206  47.720  10.1890  0.00  0.00     0.000 OA
ATOM     32   O  SGN B   2     -19.312  48.209   8.9060  0.00  0.00     0.000 OA
ATOM     33   O  SGN B   2     -19.163  46.721  10.7480  0.00  0.00     0.000 OA
ENDBRANCH 21 30
BRANCH 24 34
ATOM     34   C  SGN B   2     -22.181  51.253  15.3210  0.00  0.00     0.000 C
ATOM     35   O  SGN B   2     -22.796  50.078  15.7130  0.00  0.00     0.000 O
ATOM     36  @S  SGN B   2     -23.688  49.967  16.9450  0.00  0.00     0.000 S
ATOM     37   O  SGN B   2     -25.022  50.231  16.4430  0.00  0.00     0.000 OA
ATOM     38   O  SGN B   2     -23.519  48.628  17.4610  0.00  0.00     0.000 OA
ATOM     39   O  SGN B   2     -23.194  50.979  17.8670  0.00  0.00     0.000 OA
ENDBRANCH 24 34
BRANCH 20 40
ATOM     40  O4  IDS B   3     -18.993  49.238  13.7150  0.00  0.00     0.000 O
BRANCH 40 44
ATOM     41  C1  IDS B   3     -15.864  48.471  15.1030  0.00  0.00     0.000 C
ATOM     42  C2  IDS B   3     -16.467  47.586  14.0140  0.00  0.00     0.000 C
ATOM     43  C3  IDS B   3     -17.946  47.201  14.2120  0.00  0.00     0.000 C
ATOM     44  C4  IDS B   3     -18.741  48.366  14.7660  0.00  0.00     0.000 C
ATOM     45  C5  IDS B   3     -17.988  49.097  15.8880  0.00  0.00     0.000 C
ATOM     46  O5  IDS B   3     -16.755  49.525  15.4380  0.00  0.00     0.000 O
ATOM     47   O  IDS B   3     -18.032  46.129  15.1280  0.00  0.00     0.000 O
ATOM     49  HD  IDS B   3     -18.290  46.630  14.4700  0.00  0.00     0.000 HD
BRANCH 42 49
ATOM     49   O  IDS B   3     -16.377  48.261  12.7920  0.00  0.00     0.000 O
ATOM     50   O  IDS B   3     -14.385  47.125  12.2540  0.00  0.00     0.000 OA
ATOM     51   O  IDS B   3     -15.974  47.534  10.5480  0.00  0.00     0.000 OA
ATOM     52   O  IDS B   3     -14.770  49.323  11.5080  0.00  0.00     0.000 OA
ATOM     53  @S  IDS B   3     -15.316  48.044  11.7100  0.00  0.00     0.000 S
ENDBRANCH 42 49
BRANCH 45 54
ATOM     54 @CA  IDS B   3     -18.737  50.265  16.5260  0.00  0.00     0.000 C
ATOM     55   O  IDS B   3     -19.656  50.089  17.2800  0.00  0.00     0.000 OA
ATOM     56   O  IDS B   3     -18.422  51.389  16.3140  0.00  0.00     0.000 OA
ENDBRANCH 45 54
BRANCH 41 57
ATOM     57  O4  SGN B   4     -15.547  47.695  16.2110  0.00  0.00     0.000 O
BRANCH 57 61
ATOM     58  C1  SGN B   4     -12.083  49.819  16.9120  0.00  0.00     0.000 C
ATOM     59  C2  SGN B   4     -11.909  48.506  16.1670  0.00  0.00     0.000 C
ATOM     60  C3  SGN B   4     -13.258  48.029  15.6370  0.00  0.00     0.000 C
ATOM     61  C4  SGN B   4     -14.288  47.918  16.7670  0.00  0.00     0.000 C
ATOM     62  C5  SGN B   4     -14.318  49.254  17.5040  0.00  0.00     0.000 C
ATOM     63  O5  SGN B   4     -13.027  49.624  17.9510  0.00  0.00     0.000 O
ATOM     64   O  SGN B   4     -13.092  46.752  15.0540  0.00  0.00     0.000 O
ATOM     66  HD  SGN B   4     -13.554  46.108  15.4010  0.00  0.00     0.000 HD
BRANCH 59 68
ATOM     66   N  SGN B   4     -10.520  48.119  16.3060  0.00  0.00     0.000 N
ATOM     68  HD  SGN B   4     -11.103  48.577  16.7540  0.00  0.00     0.000 HD
ATOM     68 @NS  SGN B   4      -9.369  48.855  15.3980  0.00  0.00     0.000 S
ATOM     69   O  SGN B   4      -9.910  49.093  14.0920  0.00  0.00     0.000 OA
ATOM     70   O  SGN B   4      -9.060  50.086  16.0660  0.00  0.00     0.000 OA
ATOM     71   O  SGN B   4      -8.280  47.926  15.3840  0.00  0.00     0.000 OA
ENDBRANCH 59 68
BRANCH 62 72
ATOM     72   C  SGN B   4     -15.216  49.231  18.7320  0.00  0.00     0.000 C
ATOM     73   O  SGN B   4     -15.550  47.889  18.9270  0.00  0.00     0.000 O
ATOM     74  @S  SGN B   4     -15.833  47.178  20.2620  0.00  0.00     0.000 S
ATOM     75   O  SGN B   4     -16.912  47.855  20.8800  0.00  0.00     0.000 OA
ATOM     76   O  SGN B   4     -16.177  45.841  19.8820  0.00  0.00     0.000 OA
ATOM     77   O  SGN B   4     -14.638  47.298  21.0270  0.00  0.00     0.000 OA
ENDBRANCH 62 72
BRANCH 58 78
ATOM     78  O4  IDS B   5     -12.475  50.839  16.0150  0.00  0.00     0.000 O
BRANCH 78 82
ATOM     79  C1  IDS B   5     -12.972  53.653  14.0580  0.00  0.00     0.000 C
ATOM     80  C2  IDS B   5     -11.660  52.932  13.9850  0.00  0.00     0.000 C
ATOM     81  C3  IDS B   5     -11.032  52.655  15.3480  0.00  0.00     0.000 C
ATOM     82  C4  IDS B   5     -12.034  52.135  16.3590  0.00  0.00     0.000 C
ATOM     83  C5  IDS B   5     -13.208  53.061  16.3470  0.00  0.00     0.000 C
ATOM     84  O5  IDS B   5     -13.790  53.072  15.0570  0.00  0.00     0.000 O
ATOM     85   O  IDS B   5     -10.521  53.870  15.8410  0.00  0.00     0.000 O
ATOM     87  HD  IDS B   5     -11.068  53.319  16.2260  0.00  0.00     0.000 HD
BRANCH 80 87
ATOM     87   O  IDS B   5     -11.872  51.715  13.3870  0.00  0.00     0.000 O
ATOM     88  @S  IDS B   5     -11.675  51.367  11.9090  0.00  0.00     0.000 S
ATOM     89   O  IDS B   5     -10.350  51.774  11.6090  0.00  0.00     0.000 OA
ATOM     90   O  IDS B   5     -11.889  49.966  11.8190  0.00  0.00     0.000 OA
ATOM     91   O  IDS B   5     -12.659  52.104  11.1970  0.00  0.00     0.000 OA
ENDBRANCH 80 87
BRANCH 83 92
ATOM     92 @CA  IDS B   5     -14.224  52.778  17.4470  0.00  0.00     0.000 C
ATOM     93   O  IDS B   5     -15.427  52.685  17.1920  0.00  0.00     0.000 OA
ATOM     94   O  IDS B   5     -13.859  52.640  18.6210  0.00  0.00     0.000 OA
ENDBRANCH 83 92
BRANCH 79 95
ATOM     95  O4  SGN B   6     -12.746  55.004  14.2850  0.00  0.00     0.000 O
BRANCH 95 99
ATOM     96  C1  SGN B   6     -15.088  58.426  14.4170  0.00  0.00     0.000 C
ATOM     97  C2  SGN B   6     -15.627  57.220  15.1780  0.00  0.00     0.000 C
ATOM     98  C3  SGN B   6     -14.428  56.316  15.4680  0.00  0.00     0.000 C
ATOM     99  C4  SGN B   6     -13.881  55.830  14.0950  0.00  0.00     0.000 C
ATOM    100  C5  SGN B   6     -13.453  57.103  13.3110  0.00  0.00     0.000 C
ATOM    101  O5  SGN B   6     -14.533  58.022  13.1810  0.00  0.00     0.000 O
BRANCH 97 104
ATOM    102   N  SGN B   6     -16.718  58.193  15.2820  0.00  0.00     0.000 N
ATOM    104  HD  SGN B   6     -16.756  58.502  16.0900  0.00  0.00     0.000 HD
ATOM    104 @NS  SGN B   6     -17.986  57.821  16.2860  0.00  0.00     0.000 S
ATOM    105   O  SGN B   6     -17.696  56.546  16.9050  0.00  0.00     0.000 OA
ATOM    106   O  SGN B   6     -18.077  58.889  17.2540  0.00  0.00     0.000 OA
ATOM    107   O  SGN B   6     -19.156  57.740  15.4400  0.00  0.00     0.000 OA
ENDBRANCH 97 104
BRANCH 100 108
ATOM    108   C  SGN B   6     -12.924  56.874  11.9000  0.00  0.00     0.000 C
ATOM    109   O  SGN B   6     -11.763  57.642  11.7060  0.00  0.00     0.000 O
ATOM    110  @S  SGN B   6     -10.909  57.701  10.3880  0.00  0.00     0.000 S
ATOM    111   O  SGN B   6     -11.858  57.714   9.3010  0.00  0.00     0.000 OA
ATOM    112   O  SGN B   6     -10.136  58.931  10.4540  0.00  0.00     0.000 OA
ATOM    113   O  SGN B   6     -10.088  56.512  10.3990  0.00  0.00     0.000 OA
ENDBRANCH 100 108
ENDBRANCH 95 99
ENDBRANCH 79 95
ENDBRANCH 78 82
ENDBRANCH 58 78
ENDBRANCH 57 61
ENDBRANCH 41 57
ENDBRANCH 40 44
ENDBRANCH 20 40
ENDBRANCH 19 23
ENDBRANCH 1 19
TORSDOF 22
ENDMDL
MODEL 74
REMARK VINA RESULT:       2.2      4.390      9.684
ROOT
ATOM      1  C1  IDS B   1     -15.715  56.301  14.4920  0.00  0.00     0.000 C
ATOM      2  C2  IDS B   1     -16.549  56.820  15.6340  0.00  0.00     0.000 C
ATOM      3  C3  IDS B   1     -16.016  56.522  17.0560  0.00  0.00     0.000 C
ATOM      4  C4  IDS B   1     -14.450  56.375  17.1270  0.00  0.00     0.000 C
ATOM      5  C5  IDS B   1     -13.837  55.867  15.7990  0.00  0.00     0.000 C
ATOM      6  O5  IDS B   1     -14.353  56.599  14.7200  0.00  0.00     0.000 O
ATOM      7   O  IDS B   1     -16.662  55.337  17.5100  0.00  0.00     0.000 O
ATOM      9  HD  IDS B   1     -15.912  55.437  17.9310  0.00  0.00     0.000 HD
ATOM      9   O  IDS B   1     -13.911  57.650  17.3950  0.00  0.00     0.000 O
ATOM     11  HD  IDS B   1     -13.161  57.750  17.8160  0.00  0.00     0.000 HD
ENDROOT
BRANCH 2 11
ATOM     11   O  IDS B   1     -16.663  58.198  15.5390  0.00  0.00     0.000 O
ATOM     12  @S  IDS B   1     -17.861  58.931  14.9060  0.00  0.00     0.000 S
ATOM     13   O  IDS B   1     -18.392  57.974  13.9570  0.00  0.00     0.000 OA
ATOM     14   O  IDS B   1     -18.790  59.219  15.9850  0.00  0.00     0.000 OA
ATOM     15   O  IDS B   1     -17.316  60.129  14.2980  0.00  0.00     0.000 OA
ENDBRANCH 2 11
BRANCH 5 16
ATOM     16 @CA  IDS B   1     -12.314  55.835  15.7200  0.00  0.00     0.000 C
ATOM     17   O  IDS B   1     -11.650  56.867  15.6510  0.00  0.00     0.000 OA
ATOM     18   O  IDS B   1     -11.711  54.764  15.7360  0.00  0.00     0.000 OA
ENDBRANCH 5 16
BRANCH 1 19
ATOM     19  O4  SGN B   2     -15.917  54.906  14.4030  0.00  0.00     0.000 O
BRANCH 19 23
ATOM     20  C1  SGN B   2     -16.207  52.353  11.2160  0.00  0.00     0.000 C
ATOM     21  C2  SGN B   2     -14.833  52.792  11.6730  0.00  0.00     0.000 C
ATOM     22  C3  SGN B   2     -14.892  53.192  13.1030  0.00  0.00     0.000 C
ATOM     23  C4  SGN B   2     -15.820  54.385  13.1270  0.00  0.00     0.000 C
ATOM     24  C5  SGN B   2     -17.157  53.849  12.7470  0.00  0.00     0.000 C
ATOM     25  O5  SGN B   2     -17.122  53.417  11.4350  0.00  0.00     0.000 O
ATOM     26   O  SGN B   2     -13.628  53.553  13.5340  0.00  0.00     0.000 O
ATOM     28  HD  SGN B   2     -12.907  53.959  13.7910  0.00  0.00     0.000 HD
BRANCH 21 30
ATOM     28   N  SGN B   2     -13.503  52.353  11.3660  0.00  0.00     0.000 N
ATOM     30  HD  SGN B   2     -13.196  53.090  11.0320  0.00  0.00     0.000 HD
ATOM     30 @NS  SGN B   2     -13.281  51.622   9.9310  0.00  0.00     0.000 S
ATOM     31   O  SGN B   2     -14.483  51.705   9.1720  0.00  0.00     0.000 OA
ATOM     32   O  SGN B   2     -12.246  52.365   9.3390  0.00  0.00     0.000 OA
ATOM     33   O  SGN B   2     -12.950  50.278  10.2190  0.00  0.00     0.000 OA
ENDBRANCH 21 30
BRANCH 24 34
ATOM     34   C  SGN B   2     -18.281  54.811  12.8520  0.00  0.00     0.000 C
ATOM     35   O  SGN B   2     -18.742  55.056  11.5710  0.00  0.00     0.000 O
ATOM     36  @S  SGN B   2     -20.024  55.824  11.2720  0.00  0.00     0.000 S
ATOM     37   O  SGN B   2     -19.591  57.201  11.1340  0.00  0.00     0.000 OA
ATOM     38   O  SGN B   2     -20.570  55.265  10.0570  0.00  0.00     0.000 OA
ATOM     39   O  SGN B   2     -20.887  55.590  12.4220  0.00  0.00     0.000 OA
ENDBRANCH 24 34
BRANCH 20 40
ATOM     40  O4  IDS B   3     -16.601  51.199  11.8910  0.00  0.00     0.000 O
BRANCH 40 44
ATOM     41  C1  IDS B   3     -18.027  48.118  12.7730  0.00  0.00     0.000 C
ATOM     42  C2  IDS B   3     -16.651  48.174  12.1120  0.00  0.00     0.000 C
ATOM     43  C3  IDS B   3     -16.543  49.087  10.8760  0.00  0.00     0.000 C
ATOM     44  C4  IDS B   3     -17.343  50.360  11.0690  0.00  0.00     0.000 C
ATOM     45  C5  IDS B   3     -18.718  50.088  11.6980  0.00  0.00     0.000 C
ATOM     46  O5  IDS B   3     -18.574  49.422  12.8990  0.00  0.00     0.000 O
ATOM     47   O  IDS B   3     -17.056  48.409   9.7480  0.00  0.00     0.000 O
ATOM     49  HD  IDS B   3     -16.565  48.985  10.1690  0.00  0.00     0.000 HD
BRANCH 42 49
ATOM     49   O  IDS B   3     -15.726  48.642  13.0520  0.00  0.00     0.000 O
ATOM     50   O  IDS B   3     -15.514  46.491  13.9880  0.00  0.00     0.000 OA
ATOM     51   O  IDS B   3     -13.587  47.849  13.7740  0.00  0.00     0.000 OA
ATOM     52   O  IDS B   3     -15.282  48.421  15.3130  0.00  0.00     0.000 OA
ATOM     53  @S  IDS B   3     -14.980  47.799  14.0900  0.00  0.00     0.000 S
ENDBRANCH 42 49
BRANCH 45 54
ATOM     54 @CA  IDS B   3     -19.602  51.318  11.8950  0.00  0.00     0.000 C
ATOM     55   O  IDS B   3     -20.047  51.931  10.9620  0.00  0.00     0.000 OA
ATOM     56   O  IDS B   3     -19.897  51.698  12.9790  0.00  0.00     0.000 OA
ENDBRANCH 45 54
BRANCH 41 57
ATOM     57  O4  SGN B   4     -18.861  47.280  12.0430  0.00  0.00     0.000 O
BRANCH 57 61
ATOM     58  C1  SGN B   4     -22.067  47.037  14.6230  0.00  0.00     0.000 C
ATOM     59  C2  SGN B   4     -20.788  46.371  15.1020  0.00  0.00     0.000 C
ATOM     60  C3  SGN B   4     -19.607  46.859  14.2670  0.00  0.00     0.000 C
ATOM     61  C4  SGN B   4     -19.854  46.627  12.7720  0.00  0.00     0.000 C
ATOM     62  C5  SGN B   4     -21.200  47.253  12.4170  0.00  0.00     0.000 C
ATOM     63  O5  SGN B   4     -22.234  46.753  13.2440  0.00  0.00     0.000 O
ATOM     64   O  SGN B   4     -18.453  46.140  14.6490  0.00  0.00     0.000 O
ATOM     66  HD  SGN B   4     -18.066  45.675  14.0290  0.00  0.00     0.000 HD
BRANCH 59 68
ATOM     66   N  SGN B   4     -20.606  46.700  16.5010  0.00  0.00     0.000 N
ATOM     68  HD  SGN B   4     -20.188  46.248  15.8920  0.00  0.00     0.000 HD
ATOM     68 @NS  SGN B   4     -21.518  45.957  17.6430  0.00  0.00     0.000 S
ATOM     69   O  SGN B   4     -22.843  45.788  17.1230  0.00  0.00     0.000 OA
ATOM     70   O  SGN B   4     -20.891  44.691  17.8930  0.00  0.00     0.000 OA
ATOM     71   O  SGN B   4     -21.473  46.845  18.7650  0.00  0.00     0.000 OA
ENDBRANCH 59 68
BRANCH 62 72
ATOM     72   C  SGN B   4     -21.619  46.979  10.9810  0.00  0.00     0.000 C
ATOM     73   O  SGN B   4     -22.340  45.785  11.0230  0.00  0.00     0.000 O
ATOM     74  @S  SGN B   4     -23.508  45.364  10.1140  0.00  0.00     0.000 S
ATOM     75   O  SGN B   4     -23.035  45.390   8.7790  0.00  0.00     0.000 OA
ATOM     76   O  SGN B   4     -23.833  44.039  10.5490  0.00  0.00     0.000 OA
ATOM     77   O  SGN B   4     -24.531  46.333  10.3210  0.00  0.00     0.000 OA
ENDBRANCH 62 72
BRANCH 58 78
ATOM     78  O4  IDS B   5     -22.020  48.425  14.8830  0.00  0.00     0.000 O
BRANCH 78 82
ATOM     79  C1  IDS B   5     -22.765  51.804  15.0470  0.00  0.00     0.000 C
ATOM     80  C2  IDS B   5     -22.119  51.139  16.2240  0.00  0.00     0.000 C
ATOM     81  C3  IDS B   5     -22.813  49.851  16.6610  0.00  0.00     0.000 C
ATOM     82  C4  IDS B   5     -23.176  48.957  15.4930  0.00  0.00     0.000 C
ATOM     83  C5  IDS B   5     -23.906  49.795  14.4930  0.00  0.00     0.000 C
ATOM     84  O5  IDS B   5     -23.065  50.843  14.0500  0.00  0.00     0.000 O
ATOM     85   O  IDS B   5     -24.009  50.208  17.3130  0.00  0.00     0.000 O
ATOM     87  HD  IDS B   5     -23.899  49.663  16.6480  0.00  0.00     0.000 HD
BRANCH 80 87
ATOM     87   O  IDS B   5     -20.835  50.802  15.8760  0.00  0.00     0.000 O
ATOM     88  @S  IDS B   5     -19.676  50.486  16.8250  0.00  0.00     0.000 S
ATOM     89   O  IDS B   5     -20.172  49.475  17.6870  0.00  0.00     0.000 OA
ATOM     90   O  IDS B   5     -18.607  50.067  15.9890  0.00  0.00     0.000 OA
ATOM     91   O  IDS B   5     -19.380  51.700  17.5020  0.00  0.00     0.000 OA
ENDBRANCH 80 87
BRANCH 83 92
ATOM     92 @CA  IDS B   5     -24.504  48.996  13.3420  0.00  0.00     0.000 C
ATOM     93   O  IDS B   5     -24.236  49.273  12.1700  0.00  0.00     0.000 OA
ATOM     94   O  IDS B   5     -25.274  48.053  13.5620  0.00  0.00     0.000 OA
ENDBRANCH 83 92
BRANCH 79 95
ATOM     95  O4  SGN B   6     -23.893  52.496  15.4660  0.00  0.00     0.000 O
BRANCH 95 99
ATOM     96  C1  SGN B   6     -26.413  55.345  13.8100  0.00  0.00     0.000 C
ATOM     97  C2  SGN B   6     -26.053  54.170  12.9090  0.00  0.00     0.000 C
ATOM     98  C3  SGN B   6     -25.623  53.029  13.8320  0.00  0.00     0.000 C
ATOM     99  C4  SGN B   6     -24.336  53.498  14.5680  0.00  0.00     0.000 C
ATOM    100  C5  SGN B   6     -24.726  54.766  15.3810  0.00  0.00     0.000 C
ATOM    101  O5  SGN B   6     -25.279  55.773  14.5390  0.00  0.00     0.000 O
BRANCH 97 104
ATOM    102   N  SGN B   6     -26.878  55.020  12.0450  0.00  0.00     0.000 N
ATOM    104  HD  SGN B   6     -27.620  54.614  11.8610  0.00  0.00     0.000 HD
ATOM    104 @NS  SGN B   6     -27.202  54.472  10.5130  0.00  0.00     0.000 S
ATOM    105   O  SGN B   6     -26.585  53.171  10.3710  0.00  0.00     0.000 OA
ATOM    106   O  SGN B   6     -28.640  54.410  10.3890  0.00  0.00     0.000 OA
ATOM    107   O  SGN B   6     -26.612  55.435   9.6100  0.00  0.00     0.000 OA
ENDBRANCH 97 104
BRANCH 100 108
ATOM    108   C  SGN B   6     -23.598  55.438  16.1540  0.00  0.00     0.000 C
ATOM    109   O  SGN B   6     -22.362  54.944  15.7020  0.00  0.00     0.000 O
ATOM    110  @S  SGN B   6     -20.949  55.371  16.2400  0.00  0.00     0.000 S
ATOM    111   O  SGN B   6     -21.089  55.492  17.6710  0.00  0.00     0.000 OA
ATOM    112   O  SGN B   6     -20.029  54.307  15.8680  0.00  0.00     0.000 OA
ATOM    113   O  SGN B   6     -20.650  56.632  15.6000  0.00  0.00     0.000 OA
ENDBRANCH 100 108
ENDBRANCH 95 99
ENDBRANCH 79 95
ENDBRANCH 78 82
ENDBRANCH 58 78
ENDBRANCH 57 61
ENDBRANCH 41 57
ENDBRANCH 40 44
ENDBRANCH 20 40
ENDBRANCH 19 23
ENDBRANCH 1 19
TORSDOF 22
ENDMDL
MODEL 75
REMARK VINA RESULT:       2.3      4.616     13.150
ROOT
ATOM      1  C1  IDS B   1     -22.567  53.639  10.0660  0.00  0.00     0.000 C
ATOM      2  C2  IDS B   1     -23.775  54.417  10.5170  0.00  0.00     0.000 C
ATOM      3  C3  IDS B   1     -23.496  55.800  11.1540  0.00  0.00     0.000 C
ATOM      4  C4  IDS B   1     -22.175  56.481  10.6330  0.00  0.00     0.000 C
ATOM      5  C5  IDS B   1     -21.109  55.451  10.1850  0.00  0.00     0.000 C
ATOM      6  O5  IDS B   1     -21.692  54.487   9.3500  0.00  0.00     0.000 O
ATOM      7   O  IDS B   1     -23.453  55.614  12.5650  0.00  0.00     0.000 O
ATOM      9  HD  IDS B   1     -23.001  56.321  12.3520  0.00  0.00     0.000 HD
ATOM      9   O  IDS B   1     -22.512  57.272   9.5150  0.00  0.00     0.000 O
ATOM     11  HD  IDS B   1     -22.060  57.979   9.3030  0.00  0.00     0.000 HD
ENDROOT
BRANCH 2 11
ATOM     11   O  IDS B   1     -24.613  54.645   9.4370  0.00  0.00     0.000 O
ATOM     12  @S  IDS B   1     -26.054  54.112   9.3240  0.00  0.00     0.000 S
ATOM     13   O  IDS B   1     -26.049  52.921  10.1500  0.00  0.00     0.000 OA
ATOM     14   O  IDS B   1     -26.925  55.149   9.8470  0.00  0.00     0.000 OA
ATOM     15   O  IDS B   1     -26.271  53.853   7.9140  0.00  0.00     0.000 OA
ENDBRANCH 2 11
BRANCH 5 16
ATOM     16 @CA  IDS B   1     -19.854  56.013   9.5250  0.00  0.00     0.000 C
ATOM     17   O  IDS B   1     -19.038  56.682  10.1550  0.00  0.00     0.000 OA
ATOM     18   O  IDS B   1     -19.622  55.795   8.3380  0.00  0.00     0.000 OA
ENDBRANCH 5 16
BRANCH 1 19
ATOM     19  O4  SGN B   2     -21.932  53.114  11.2130  0.00  0.00     0.000 O
BRANCH 19 23
ATOM     20  C1  SGN B   2     -21.699  49.327  12.7500  0.00  0.00     0.000 C
ATOM     21  C2  SGN B   2     -21.541  49.516  11.2580  0.00  0.00     0.000 C
ATOM     22  C3  SGN B   2     -21.078  50.901  10.9820  0.00  0.00     0.000 C
ATOM     23  C4  SGN B   2     -22.204  51.784  11.4700  0.00  0.00     0.000 C
ATOM     24  C5  SGN B   2     -22.233  51.599  12.9480  0.00  0.00     0.000 C
ATOM     25  O5  SGN B   2     -22.609  50.302  13.2400  0.00  0.00     0.000 O
ATOM     26   O  SGN B   2     -20.893  51.063   9.6200  0.00  0.00     0.000 O
ATOM     28  HD  SGN B   2     -20.942  51.264   8.7790  0.00  0.00     0.000 HD
BRANCH 21 30
ATOM     28   N  SGN B   2     -21.931  48.148  11.4340  0.00  0.00     0.000 N
ATOM     30  HD  SGN B   2     -21.355  47.925  12.0400  0.00  0.00     0.000 HD
ATOM     30 @NS  SGN B   2     -21.275  47.058  10.4230  0.00  0.00     0.000 S
ATOM     31   O  SGN B   2     -20.283  47.698   9.6250  0.00  0.00     0.000 OA
ATOM     32   O  SGN B   2     -20.707  46.107  11.2870  0.00  0.00     0.000 OA
ATOM     33   O  SGN B   2     -22.335  46.570   9.6250  0.00  0.00     0.000 OA
ENDBRANCH 21 30
BRANCH 24 34
ATOM     34   C  SGN B   2     -23.164  52.491  13.6820  0.00  0.00     0.000 C
ATOM     35   O  SGN B   2     -24.436  52.264  13.1880  0.00  0.00     0.000 O
ATOM     36  @S  SGN B   2     -25.699  52.829  13.8280  0.00  0.00     0.000 S
ATOM     37   O  SGN B   2     -25.908  54.093  13.1490  0.00  0.00     0.000 OA
ATOM     38   O  SGN B   2     -26.750  51.866  13.5940  0.00  0.00     0.000 OA
ATOM     39   O  SGN B   2     -25.382  52.966  15.2430  0.00  0.00     0.000 OA
ENDBRANCH 24 34
BRANCH 20 40
ATOM     40  O4  IDS B   3     -20.463  49.422  13.3890  0.00  0.00     0.000 O
BRANCH 40 44
ATOM     41  C1  IDS B   3     -17.623  48.268  15.0930  0.00  0.00     0.000 C
ATOM     42  C2  IDS B   3     -18.346  47.368  14.0920  0.00  0.00     0.000 C
ATOM     43  C3  IDS B   3     -19.879  47.314  14.2310  0.00  0.00     0.000 C
ATOM     44  C4  IDS B   3     -20.442  48.682  14.5640  0.00  0.00     0.000 C
ATOM     45  C5  IDS B   3     -19.605  49.407  15.6290  0.00  0.00     0.000 C
ATOM     46  O5  IDS B   3     -18.292  49.514  15.2170  0.00  0.00     0.000 O
ATOM     47   O  IDS B   3     -20.224  46.428  15.2750  0.00  0.00     0.000 O
ATOM     49  HD  IDS B   3     -20.344  46.866  14.5380  0.00  0.00     0.000 HD
BRANCH 42 49
ATOM     49   O  IDS B   3     -18.065  47.825  12.8000  0.00  0.00     0.000 O
ATOM     50   O  IDS B   3     -16.076  46.565  12.7320  0.00  0.00     0.000 OA
ATOM     51   O  IDS B   3     -17.407  46.721  10.7810  0.00  0.00     0.000 OA
ATOM     52   O  IDS B   3     -16.255  48.615  11.5910  0.00  0.00     0.000 OA
ATOM     53  @S  IDS B   3     -16.883  47.402  11.9230  0.00  0.00     0.000 S
ENDBRANCH 42 49
BRANCH 45 54
ATOM     54 @CA  IDS B   3     -20.127  50.781  16.0460  0.00  0.00     0.000 C
ATOM     55   O  IDS B   3     -20.970  50.905  16.8920  0.00  0.00     0.000 OA
ATOM     56   O  IDS B   3     -19.698  51.776  15.5630  0.00  0.00     0.000 OA
ENDBRANCH 45 54
BRANCH 41 57
ATOM     57  O4  SGN B   4     -17.521  47.616  16.3160  0.00  0.00     0.000 O
BRANCH 57 61
ATOM     58  C1  SGN B   4     -14.509  49.999  17.8140  0.00  0.00     0.000 C
ATOM     59  C2  SGN B   4     -14.063  48.895  16.8700  0.00  0.00     0.000 C
ATOM     60  C3  SGN B   4     -15.265  48.357  16.0990  0.00  0.00     0.000 C
ATOM     61  C4  SGN B   4     -16.370  47.890  17.0540  0.00  0.00     0.000 C
ATOM     62  C5  SGN B   4     -16.677  49.037  18.0130  0.00  0.00     0.000 C
ATOM     63  O5  SGN B   4     -15.507  49.479  18.6760  0.00  0.00     0.000 O
ATOM     64   O  SGN B   4     -14.850  47.255  15.3190  0.00  0.00     0.000 O
ATOM     66  HD  SGN B   4     -15.238  46.499  15.4840  0.00  0.00     0.000 HD
BRANCH 59 68
ATOM     66   N  SGN B   4     -12.747  49.116  17.4340  0.00  0.00     0.000 N
ATOM     68  HD  SGN B   4     -13.527  49.491  17.4680  0.00  0.00     0.000 HD
ATOM     68 @NS  SGN B   4     -11.545  49.723  16.4980  0.00  0.00     0.000 S
ATOM     69   O  SGN B   4     -11.667  49.157  15.1870  0.00  0.00     0.000 OA
ATOM     70   O  SGN B   4     -11.738  51.144  16.4720  0.00  0.00     0.000 OA
ATOM     71   O  SGN B   4     -10.342  49.324  17.1630  0.00  0.00     0.000 OA
ENDBRANCH 59 68
BRANCH 62 72
ATOM     72   C  SGN B   4     -17.673  48.652  19.0950  0.00  0.00     0.000 C
ATOM     73   O  SGN B   4     -18.881  48.427  18.4300  0.00  0.00     0.000 O
ATOM     74  @S  SGN B   4     -19.993  47.438  18.8190  0.00  0.00     0.000 S
ATOM     75   O  SGN B   4     -20.422  47.776  20.1260  0.00  0.00     0.000 OA
ATOM     76   O  SGN B   4     -21.014  47.656  17.8390  0.00  0.00     0.000 OA
ATOM     77   O  SGN B   4     -19.394  46.147  18.7870  0.00  0.00     0.000 OA
ENDBRANCH 62 72
BRANCH 58 78
ATOM     78  O4  IDS B   5     -14.964  51.115  17.0770  0.00  0.00     0.000 O
BRANCH 78 82
ATOM     79  C1  IDS B   5     -16.015  54.147  15.7730  0.00  0.00     0.000 C
ATOM     80  C2  IDS B   5     -14.605  53.698  15.5370  0.00  0.00     0.000 C
ATOM     81  C3  IDS B   5     -13.880  53.254  16.8040  0.00  0.00     0.000 C
ATOM     82  C4  IDS B   5     -14.734  52.367  17.6870  0.00  0.00     0.000 C
ATOM     83  C5  IDS B   5     -16.046  53.056  17.8830  0.00  0.00     0.000 C
ATOM     84  O5  IDS B   5     -16.678  53.235  16.6300  0.00  0.00     0.000 O
ATOM     85   O  IDS B   5     -13.559  54.408  17.5420  0.00  0.00     0.000 O
ATOM     87  HD  IDS B   5     -13.988  53.703  17.8040  0.00  0.00     0.000 HD
BRANCH 80 87
ATOM     87   O  IDS B   5     -14.635  52.615  14.6930  0.00  0.00     0.000 O
ATOM     88  @S  IDS B   5     -14.002  52.512  13.3040  0.00  0.00     0.000 S
ATOM     89   O  IDS B   5     -12.645  52.882  13.4890  0.00  0.00     0.000 OA
ATOM     90   O  IDS B   5     -14.190  51.163  12.9020  0.00  0.00     0.000 OA
ATOM     91   O  IDS B   5     -14.718  53.420  12.4770  0.00  0.00     0.000 OA
ENDBRANCH 80 87
BRANCH 83 92
ATOM     92 @CA  IDS B   5     -16.950  52.375  18.9040  0.00  0.00     0.000 C
ATOM     93   O  IDS B   5     -18.110  52.067  18.6190  0.00  0.00     0.000 OA
ATOM     94   O  IDS B   5     -16.536  52.124  20.0420  0.00  0.00     0.000 OA
ENDBRANCH 83 92
BRANCH 79 95
ATOM     95  O4  SGN B   6     -16.010  55.439  16.2830  0.00  0.00     0.000 O
BRANCH 95 99
ATOM     96  C1  SGN B   6     -18.996  58.235  16.9780  0.00  0.00     0.000 C
ATOM     97  C2  SGN B   6     -19.431  56.774  17.0070  0.00  0.00     0.000 C
ATOM     98  C3  SGN B   6     -18.174  55.950  17.2870  0.00  0.00     0.000 C
ATOM     99  C4  SGN B   6     -17.215  56.155  16.0790  0.00  0.00     0.000 C
ATOM    100  C5  SGN B   6     -16.893  57.676  16.0210  0.00  0.00     0.000 C
ATOM    101  O5  SGN B   6     -18.081  58.456  15.9220  0.00  0.00     0.000 O
BRANCH 97 104
ATOM    102   N  SGN B   6     -20.780  56.927  16.4550  0.00  0.00     0.000 N
ATOM    104  HD  SGN B   6     -21.193  57.567  16.8680  0.00  0.00     0.000 HD
ATOM    104 @NS  SGN B   6     -22.062  56.616  17.4620  0.00  0.00     0.000 S
ATOM    105   O  SGN B   6     -21.526  56.271  18.7610  0.00  0.00     0.000 OA
ATOM    106   O  SGN B   6     -22.861  57.819  17.5020  0.00  0.00     0.000 OA
ATOM    107   O  SGN B   6     -22.770  55.501  16.8730  0.00  0.00     0.000 OA
ENDBRANCH 97 104
BRANCH 100 108
ATOM    108   C  SGN B   6     -15.999  58.127  14.8720  0.00  0.00     0.000 C
ATOM    109   O  SGN B   6     -16.390  57.473  13.6910  0.00  0.00     0.000 O
ATOM    110  @S  SGN B   6     -15.724  57.649  12.2780  0.00  0.00     0.000 S
ATOM    111   O  SGN B   6     -14.302  57.717  12.5160  0.00  0.00     0.000 OA
ATOM    112   O  SGN B   6     -16.093  56.477  11.5010  0.00  0.00     0.000 OA
ATOM    113   O  SGN B   6     -16.261  58.879  11.7430  0.00  0.00     0.000 OA
ENDBRANCH 100 108
ENDBRANCH 95 99
ENDBRANCH 79 95
ENDBRANCH 78 82
ENDBRANCH 58 78
ENDBRANCH 57 61
ENDBRANCH 41 57
ENDBRANCH 40 44
ENDBRANCH 20 40
ENDBRANCH 19 23
ENDBRANCH 1 19
TORSDOF 22
ENDMDL
MODEL 76
REMARK VINA RESULT:       2.4      2.925      4.792
ROOT
ATOM      1  C1  IDS B   1     -17.706  52.209  13.4080  0.00  0.00     0.000 C
ATOM      2  C2  IDS B   1     -16.549  53.046  12.9300  0.00  0.00     0.000 C
ATOM      3  C3  IDS B   1     -15.312  52.270  12.4190  0.00  0.00     0.000 C
ATOM      4  C4  IDS B   1     -15.656  50.853  11.8250  0.00  0.00     0.000 C
ATOM      5  C5  IDS B   1     -16.924  50.231  12.4590  0.00  0.00     0.000 C
ATOM      6  O5  IDS B   1     -17.962  51.173  12.4820  0.00  0.00     0.000 O
ATOM      7   O  IDS B   1     -14.401  52.161  13.5080  0.00  0.00     0.000 O
ATOM      9  HD  IDS B   1     -14.253  51.523  12.9420  0.00  0.00     0.000 HD
ATOM      9   O  IDS B   1     -15.894  51.013  10.4440  0.00  0.00     0.000 O
ATOM     11  HD  IDS B   1     -15.745  50.374   9.8780  0.00  0.00     0.000 HD
ENDROOT
BRANCH 2 11
ATOM     11   O  IDS B   1     -16.962  53.858  11.8860  0.00  0.00     0.000 O
ATOM     12  @S  IDS B   1     -17.114  55.389  11.9790  0.00  0.00     0.000 S
ATOM     13   O  IDS B   1     -17.374  55.626  13.3850  0.00  0.00     0.000 OA
ATOM     14   O  IDS B   1     -15.853  55.960  11.5410  0.00  0.00     0.000 OA
ATOM     15   O  IDS B   1     -18.220  55.730  11.1070  0.00  0.00     0.000 OA
ENDBRANCH 2 11
BRANCH 5 16
ATOM     16 @CA  IDS B   1     -17.424  48.927  11.8450  0.00  0.00     0.000 C
ATOM     17   O  IDS B   1     -17.148  47.836  12.3370  0.00  0.00     0.000 OA
ATOM     18   O  IDS B   1     -18.133  48.942  10.8420  0.00  0.00     0.000 OA
ENDBRANCH 5 16
BRANCH 1 19
ATOM     19  O4  SGN B   2     -17.368  51.679  14.6740  0.00  0.00     0.000 O
BRANCH 19 23
ATOM     20  C1  SGN B   2     -20.277  53.585  16.8340  0.00  0.00     0.000 C
ATOM     21  C2  SGN B   2     -18.865  54.128  16.8780  0.00  0.00     0.000 C
ATOM     22  C3  SGN B   2     -18.137  53.712  15.6510  0.00  0.00     0.000 C
ATOM     23  C4  SGN B   2     -18.084  52.203  15.7330  0.00  0.00     0.000 C
ATOM     24  C5  SGN B   2     -19.498  51.754  15.5990  0.00  0.00     0.000 C
ATOM     25  O5  SGN B   2     -20.218  52.172  16.7010  0.00  0.00     0.000 O
ATOM     26   O  SGN B   2     -16.859  54.242  15.6700  0.00  0.00     0.000 O
ATOM     28  HD  SGN B   2     -16.008  54.394  15.7260  0.00  0.00     0.000 HD
BRANCH 21 30
ATOM     28   N  SGN B   2     -19.732  55.131  17.4240  0.00  0.00     0.000 N
ATOM     30  HD  SGN B   2     -19.612  55.747  16.8260  0.00  0.00     0.000 HD
ATOM     30 @NS  SGN B   2     -19.100  56.118  18.5500  0.00  0.00     0.000 S
ATOM     31   O  SGN B   2     -17.702  55.866  18.6620  0.00  0.00     0.000 OA
ATOM     32   O  SGN B   2     -19.353  57.403  18.0430  0.00  0.00     0.000 OA
ATOM     33   O  SGN B   2     -19.770  55.819  19.7590  0.00  0.00     0.000 OA
ENDBRANCH 21 30
BRANCH 24 34
ATOM     34   C  SGN B   2     -19.691  50.287  15.4910  0.00  0.00     0.000 C
ATOM     35   O  SGN B   2     -20.654  50.063  14.5240  0.00  0.00     0.000 O
ATOM     36  @S  SGN B   2     -20.982  48.682  13.9680  0.00  0.00     0.000 S
ATOM     37   O  SGN B   2     -22.051  48.199  14.8200  0.00  0.00     0.000 OA
ATOM     38   O  SGN B   2     -21.379  48.871  12.5920  0.00  0.00     0.000 OA
ATOM     39   O  SGN B   2     -19.746  47.920  14.0850  0.00  0.00     0.000 OA
ENDBRANCH 24 34
BRANCH 20 40
ATOM     40  O4  IDS B   3     -20.990  54.163  15.7850  0.00  0.00     0.000 O
BRANCH 40 44
ATOM     41  C1  IDS B   3     -24.021  55.287  14.4230  0.00  0.00     0.000 C
ATOM     42  C2  IDS B   3     -23.882  55.066  15.9280  0.00  0.00     0.000 C
ATOM     43  C3  IDS B   3     -23.225  53.737  16.3480  0.00  0.00     0.000 C
ATOM     44  C4  IDS B   3     -22.079  53.382  15.4220  0.00  0.00     0.000 C
ATOM     45  C5  IDS B   3     -22.433  53.623  13.9460  0.00  0.00     0.000 C
ATOM     46  O5  IDS B   3     -22.819  54.936  13.7540  0.00  0.00     0.000 O
ATOM     47   O  IDS B   3     -24.183  52.701  16.2860  0.00  0.00     0.000 O
ATOM     49  HD  IDS B   3     -23.466  53.100  16.5630  0.00  0.00     0.000 HD
BRANCH 42 49
ATOM     49   O  IDS B   3     -23.100  56.098  16.4580  0.00  0.00     0.000 O
ATOM     50   O  IDS B   3     -24.679  56.485  18.1630  0.00  0.00     0.000 OA
ATOM     51   O  IDS B   3     -22.372  56.623  18.6770  0.00  0.00     0.000 OA
ATOM     52   O  IDS B   3     -23.382  58.242  17.2870  0.00  0.00     0.000 OA
ATOM     53  @S  IDS B   3     -23.400  56.906  17.7240  0.00  0.00     0.000 S
ENDBRANCH 42 49
BRANCH 45 54
ATOM     54 @CA  IDS B   3     -21.341  53.256  12.9430  0.00  0.00     0.000 C
ATOM     55   O  IDS B   3     -20.413  53.988  12.7260  0.00  0.00     0.000 OA
ATOM     56   O  IDS B   3     -21.361  52.223  12.3600  0.00  0.00     0.000 OA
ENDBRANCH 45 54
BRANCH 41 57
ATOM     57  O4  SGN B   4     -25.106  54.563  13.9440  0.00  0.00     0.000 O
BRANCH 57 61
ATOM     58  C1  SGN B   4     -27.282  54.376  10.4470  0.00  0.00     0.000 C
ATOM     59  C2  SGN B   4     -26.263  53.266  10.6460  0.00  0.00     0.000 C
ATOM     60  C3  SGN B   4     -25.823  53.224  12.1070  0.00  0.00     0.000 C
ATOM     61  C4  SGN B   4     -25.288  54.587  12.5620  0.00  0.00     0.000 C
ATOM     62  C5  SGN B   4     -26.345  55.638  12.2340  0.00  0.00     0.000 C
ATOM     63  O5  SGN B   4     -26.701  55.600  10.8650  0.00  0.00     0.000 O
ATOM     64   O  SGN B   4     -24.792  52.268  12.2440  0.00  0.00     0.000 O
ATOM     66  HD  SGN B   4     -24.031  52.562  12.5340  0.00  0.00     0.000 HD
BRANCH 59 68
ATOM     66   N  SGN B   4     -26.029  52.741   9.3170  0.00  0.00     0.000 N
ATOM     68  HD  SGN B   4     -26.304  53.482   9.6710  0.00  0.00     0.000 HD
ATOM     68 @NS  SGN B   4     -27.076  51.661   8.6650  0.00  0.00     0.000 S
ATOM     69   O  SGN B   4     -27.521  50.781   9.7050  0.00  0.00     0.000 OA
ATOM     70   O  SGN B   4     -28.164  52.431   8.1330  0.00  0.00     0.000 OA
ATOM     71   O  SGN B   4     -26.312  50.988   7.6590  0.00  0.00     0.000 OA
ENDBRANCH 59 68
BRANCH 62 72
ATOM     72   C  SGN B   4     -25.878  57.056  12.5250  0.00  0.00     0.000 C
ATOM     73   O  SGN B   4     -26.835  57.597  13.3870  0.00  0.00     0.000 O
ATOM     74  @S  SGN B   4     -26.614  58.645  14.4910  0.00  0.00     0.000 S
ATOM     75   O  SGN B   4     -26.070  59.798  13.8760  0.00  0.00     0.000 OA
ATOM     76   O  SGN B   4     -27.924  58.878  15.0200  0.00  0.00     0.000 OA
ATOM     77   O  SGN B   4     -25.692  58.059  15.4050  0.00  0.00     0.000 OA
ENDBRANCH 62 72
BRANCH 58 78
ATOM     78  O4  IDS B   5     -28.471  54.078  11.1500  0.00  0.00     0.000 O
BRANCH 78 82
ATOM     79  C1  IDS B   5     -31.668  53.290  12.2220  0.00  0.00     0.000 C
ATOM     80  C2  IDS B   5     -31.078  52.541  11.0670  0.00  0.00     0.000 C
ATOM     81  C3  IDS B   5     -30.486  53.442   9.9860  0.00  0.00     0.000 C
ATOM     82  C4  IDS B   5     -29.653  54.571  10.5570  0.00  0.00     0.000 C
ATOM     83  C5  IDS B   5     -30.472  55.249  11.6080  0.00  0.00     0.000 C
ATOM     84  O5  IDS B   5     -30.790  54.323  12.6300  0.00  0.00     0.000 O
ATOM     85   O  IDS B   5     -31.555  54.019   9.2750  0.00  0.00     0.000 O
ATOM     87  HD  IDS B   5     -30.889  54.414   9.6610  0.00  0.00     0.000 HD
BRANCH 80 87
ATOM     87   O  IDS B   5     -30.054  51.758  11.5400  0.00  0.00     0.000 O
ATOM     88  @S  IDS B   5     -30.113  50.266  11.8740  0.00  0.00     0.000 S
ATOM     89   O  IDS B   5     -30.629  49.648  10.7060  0.00  0.00     0.000 OA
ATOM     90   O  IDS B   5     -28.778  49.896  12.1890  0.00  0.00     0.000 OA
ATOM     91   O  IDS B   5     -30.978  50.149  12.9950  0.00  0.00     0.000 OA
ENDBRANCH 80 87
BRANCH 83 92
ATOM     92 @CA  IDS B   5     -29.841  56.526  12.1490  0.00  0.00     0.000 C
ATOM     93   O  IDS B   5     -29.421  57.399  11.3850  0.00  0.00     0.000 OA
ATOM     94   O  IDS B   5     -29.736  56.709  13.3670  0.00  0.00     0.000 OA
ENDBRANCH 83 92
BRANCH 79 95
ATOM     95  O4  SGN B   6     -32.922  53.773  11.8700  0.00  0.00     0.000 O
BRANCH 95 99
ATOM     96  C1  SGN B   6     -36.227  55.024  14.0430  0.00  0.00     0.000 C
ATOM     97  C2  SGN B   6     -34.874  55.209  14.7210  0.00  0.00     0.000 C
ATOM     98  C3  SGN B   6     -33.826  55.226  13.6080  0.00  0.00     0.000 C
ATOM     99  C4  SGN B   6     -33.853  53.824  12.9350  0.00  0.00     0.000 C
ATOM    100  C5  SGN B   6     -35.286  53.633  12.3600  0.00  0.00     0.000 C
ATOM    101  O5  SGN B   6     -36.276  53.779  13.3740  0.00  0.00     0.000 O
BRANCH 97 104
ATOM    102   N  SGN B   6     -34.301  56.032  15.7900  0.00  0.00     0.000 N
ATOM    104  HD  SGN B   6     -34.179  55.547  16.4970  0.00  0.00     0.000 HD
ATOM    104 @NS  SGN B   6     -35.213  56.260  17.1570  0.00  0.00     0.000 S
ATOM    105   O  SGN B   6     -36.443  55.517  16.9940  0.00  0.00     0.000 OA
ATOM    106   O  SGN B   6     -34.426  55.776  18.2680  0.00  0.00     0.000 OA
ATOM    107   O  SGN B   6     -35.464  57.682  17.2370  0.00  0.00     0.000 OA
ENDBRANCH 97 104
BRANCH 100 108
ATOM    108   C  SGN B   6     -35.566  52.294  11.6900  0.00  0.00     0.000 C
ATOM    109   O  SGN B   6     -35.036  51.257  12.4780  0.00  0.00     0.000 O
ATOM    110  @S  SGN B   6     -35.102  49.723  12.1440  0.00  0.00     0.000 S
ATOM    111   O  SGN B   6     -34.864  49.615  10.7240  0.00  0.00     0.000 OA
ATOM    112   O  SGN B   6     -34.051  49.087  12.9240  0.00  0.00     0.000 OA
ATOM    113   O  SGN B   6     -36.430  49.296  12.5230  0.00  0.00     0.000 OA
ENDBRANCH 100 108
ENDBRANCH 95 99
ENDBRANCH 79 95
ENDBRANCH 78 82
ENDBRANCH 58 78
ENDBRANCH 57 61
ENDBRANCH 41 57
ENDBRANCH 40 44
ENDBRANCH 20 40
ENDBRANCH 19 23
ENDBRANCH 1 19
TORSDOF 22
ENDMDL
MODEL 77
REMARK VINA RESULT:       2.4      3.329      5.356
ROOT
ATOM      1  C1  IDS B   1     -15.927  50.045  11.8810  0.00  0.00     0.000 C
ATOM      2  C2  IDS B   1     -14.455  50.269  11.6560  0.00  0.00     0.000 C
ATOM      3  C3  IDS B   1     -13.766  49.310  10.6570  0.00  0.00     0.000 C
ATOM      4  C4  IDS B   1     -14.733  48.747   9.5490  0.00  0.00     0.000 C
ATOM      5  C5  IDS B   1     -16.203  48.663  10.0270  0.00  0.00     0.000 C
ATOM      6  O5  IDS B   1     -16.580  49.867  10.6400  0.00  0.00     0.000 O
ATOM      7   O  IDS B   1     -13.189  48.252  11.4160  0.00  0.00     0.000 O
ATOM      9  HD  IDS B   1     -13.334  47.981  10.6070  0.00  0.00     0.000 HD
ATOM      9   O  IDS B   1     -14.684  49.628   8.4490  0.00  0.00     0.000 O
ATOM     11  HD  IDS B   1     -14.829  49.357   7.6400  0.00  0.00     0.000 HD
ENDROOT
BRANCH 2 11
ATOM     11   O  IDS B   1     -14.247  51.552  11.1740  0.00  0.00     0.000 O
ATOM     12  @S  IDS B   1     -12.874  52.116  10.7600  0.00  0.00     0.000 S
ATOM     13   O  IDS B   1     -11.932  51.349  11.5500  0.00  0.00     0.000 OA
ATOM     14   O  IDS B   1     -12.736  51.871   9.3350  0.00  0.00     0.000 OA
ATOM     15   O  IDS B   1     -12.911  53.527  11.0870  0.00  0.00     0.000 OA
ENDBRANCH 2 11
BRANCH 5 16
ATOM     16 @CA  IDS B   1     -17.240  48.273   8.9780  0.00  0.00     0.000 C
ATOM     17   O  IDS B   1     -16.999  47.432   8.1150  0.00  0.00     0.000 OA
ATOM     18   O  IDS B   1     -18.356  48.787   8.9830  0.00  0.00     0.000 OA
ENDBRANCH 5 16
BRANCH 1 19
ATOM     19  O4  SGN B   2     -16.075  48.901  12.6960  0.00  0.00     0.000 O
BRANCH 19 23
ATOM     20  C1  SGN B   2     -19.342  50.013  14.8980  0.00  0.00     0.000 C
ATOM     21  C2  SGN B   2     -17.973  50.480  15.3430  0.00  0.00     0.000 C
ATOM     22  C3  SGN B   2     -17.053  50.493  14.1760  0.00  0.00     0.000 C
ATOM     23  C4  SGN B   2     -16.962  49.046  13.7470  0.00  0.00     0.000 C
ATOM     24  C5  SGN B   2     -18.323  48.700  13.2500  0.00  0.00     0.000 C
ATOM     25  O5  SGN B   2     -19.217  48.730  14.3030  0.00  0.00     0.000 O
ATOM     26   O  SGN B   2     -15.811  50.958  14.5730  0.00  0.00     0.000 O
ATOM     28  HD  SGN B   2     -14.985  51.064  14.8090  0.00  0.00     0.000 HD
BRANCH 21 30
ATOM     28   N  SGN B   2     -18.058  51.762  15.9800  0.00  0.00     0.000 N
ATOM     30  HD  SGN B   2     -17.234  51.836  16.2330  0.00  0.00     0.000 HD
ATOM     30 @NS  SGN B   2     -18.527  51.782  17.5350  0.00  0.00     0.000 S
ATOM     31   O  SGN B   2     -18.619  50.444  18.0140  0.00  0.00     0.000 OA
ATOM     32   O  SGN B   2     -17.500  52.491  18.1800  0.00  0.00     0.000 OA
ATOM     33   O  SGN B   2     -19.789  52.421  17.5600  0.00  0.00     0.000 OA
ENDBRANCH 21 30
BRANCH 24 34
ATOM     34   C  SGN B   2     -18.448  47.362  12.6200  0.00  0.00     0.000 C
ATOM     35   O  SGN B   2     -19.658  47.327  11.9510  0.00  0.00     0.000 O
ATOM     36  @S  SGN B   2     -20.062  46.205  11.0010  0.00  0.00     0.000 S
ATOM     37   O  SGN B   2     -20.761  45.257  11.8460  0.00  0.00     0.000 OA
ATOM     38   O  SGN B   2     -20.898  46.801   9.9860  0.00  0.00     0.000 OA
ATOM     39   O  SGN B   2     -18.810  45.698  10.4560  0.00  0.00     0.000 OA
ENDBRANCH 24 34
BRANCH 20 40
ATOM     40  O4  IDS B   3     -19.906  50.930  14.0120  0.00  0.00     0.000 O
BRANCH 40 44
ATOM     41  C1  IDS B   3     -22.018  53.526  12.9580  0.00  0.00     0.000 C
ATOM     42  C2  IDS B   3     -21.492  53.488  14.3910  0.00  0.00     0.000 C
ATOM     43  C3  IDS B   3     -21.600  52.126  15.1050  0.00  0.00     0.000 C
ATOM     44  C4  IDS B   3     -21.286  50.989  14.1540  0.00  0.00     0.000 C
ATOM     45  C5  IDS B   3     -21.950  51.184  12.7810  0.00  0.00     0.000 C
ATOM     46  O5  IDS B   3     -21.567  52.392  12.2310  0.00  0.00     0.000 O
ATOM     47   O  IDS B   3     -22.916  51.952  15.5850  0.00  0.00     0.000 O
ATOM     49  HD  IDS B   3     -22.059  51.832  15.5670  0.00  0.00     0.000 HD
BRANCH 42 49
ATOM     49   O  IDS B   3     -20.138  53.839  14.3770  0.00  0.00     0.000 O
ATOM     50   O  IDS B   3     -20.657  56.059  14.9710  0.00  0.00     0.000 OA
ATOM     51   O  IDS B   3     -18.742  55.032  15.9120  0.00  0.00     0.000 OA
ATOM     52   O  IDS B   3     -18.799  55.567  13.6140  0.00  0.00     0.000 OA
ATOM     53  @S  IDS B   3     -19.550  55.204  14.7450  0.00  0.00     0.000 S
ENDBRANCH 42 49
BRANCH 45 54
ATOM     54 @CA  IDS B   3     -21.711  50.062  11.7740  0.00  0.00     0.000 C
ATOM     55   O  IDS B   3     -20.779  50.082  11.0160  0.00  0.00     0.000 OA
ATOM     56   O  IDS B   3     -22.427  49.117  11.7210  0.00  0.00     0.000 OA
ENDBRANCH 45 54
BRANCH 41 57
ATOM     57  O4  SGN B   4     -23.405  53.608  12.9730  0.00  0.00     0.000 O
BRANCH 57 61
ATOM     58  C1  SGN B   4     -26.404  55.170  10.6140  0.00  0.00     0.000 C
ATOM     59  C2  SGN B   4     -25.189  54.645   9.8690  0.00  0.00     0.000 C
ATOM     60  C3  SGN B   4     -24.356  53.761  10.7930  0.00  0.00     0.000 C
ATOM     61  C4  SGN B   4     -23.968  54.511  12.0730  0.00  0.00     0.000 C
ATOM     62  C5  SGN B   4     -25.246  55.072  12.6910  0.00  0.00     0.000 C
ATOM     63  O5  SGN B   4     -25.959  55.869  11.7640  0.00  0.00     0.000 O
ATOM     64   O  SGN B   4     -23.174  53.383  10.1180  0.00  0.00     0.000 O
ATOM     66  HD  SGN B   4     -22.428  53.625  10.4850  0.00  0.00     0.000 HD
BRANCH 59 68
ATOM     66   N  SGN B   4     -25.136  55.185   8.5250  0.00  0.00     0.000 N
ATOM     68  HD  SGN B   4     -25.387  55.451   9.3110  0.00  0.00     0.000 HD
ATOM     68 @NS  SGN B   4     -26.223  54.693   7.4000  0.00  0.00     0.000 S
ATOM     69   O  SGN B   4     -26.466  53.293   7.5910  0.00  0.00     0.000 OA
ATOM     70   O  SGN B   4     -27.411  55.464   7.6290  0.00  0.00     0.000 OA
ATOM     71   O  SGN B   4     -25.592  54.979   6.1480  0.00  0.00     0.000 OA
ENDBRANCH 59 68
BRANCH 62 72
ATOM     72   C  SGN B   4     -24.979  55.949  13.9060  0.00  0.00     0.000 C
ATOM     73   O  SGN B   4     -25.436  55.217  15.0040  0.00  0.00     0.000 O
ATOM     74  @S  SGN B   4     -24.883  55.239  16.4390  0.00  0.00     0.000 S
ATOM     75   O  SGN B   4     -24.968  56.574  16.9040  0.00  0.00     0.000 OA
ATOM     76   O  SGN B   4     -25.749  54.356  17.1620  0.00  0.00     0.000 OA
ATOM     77   O  SGN B   4     -23.530  54.808  16.3410  0.00  0.00     0.000 OA
ENDBRANCH 62 72
BRANCH 58 78
ATOM     78  O4  IDS B   5     -27.274  54.105  10.9380  0.00  0.00     0.000 O
BRANCH 78 82
ATOM     79  C1  IDS B   5     -29.822  51.801  11.3880  0.00  0.00     0.000 C
ATOM     80  C2  IDS B   5     -29.381  52.144   9.9980  0.00  0.00     0.000 C
ATOM     81  C3  IDS B   5     -29.310  53.644   9.7260  0.00  0.00     0.000 C
ATOM     82  C4  IDS B   5     -28.649  54.412  10.8520  0.00  0.00     0.000 C
ATOM     83  C5  IDS B   5     -29.314  54.002  12.1270  0.00  0.00     0.000 C
ATOM     84  O5  IDS B   5     -29.138  52.612  12.3270  0.00  0.00     0.000 O
ATOM     85   O  IDS B   5     -30.627  54.121   9.5990  0.00  0.00     0.000 O
ATOM     87  HD  IDS B   5     -29.998  54.408  10.1200  0.00  0.00     0.000 HD
BRANCH 80 87
ATOM     87   O  IDS B   5     -28.117  51.642   9.8120  0.00  0.00     0.000 O
ATOM     88  @S  IDS B   5     -27.716  50.459   8.9280  0.00  0.00     0.000 S
ATOM     89   O  IDS B   5     -28.259  50.751   7.6520  0.00  0.00     0.000 OA
ATOM     90   O  IDS B   5     -26.296  50.425   8.9640  0.00  0.00     0.000 OA
ATOM     91   O  IDS B   5     -28.292  49.307   9.5290  0.00  0.00     0.000 OA
ENDBRANCH 80 87
BRANCH 83 92
ATOM     92 @CA  IDS B   5     -28.887  54.827  13.3350  0.00  0.00     0.000 C
ATOM     93   O  IDS B   5     -29.060  56.048  13.3630  0.00  0.00     0.000 OA
ATOM     94   O  IDS B   5     -28.353  54.285  14.3100  0.00  0.00     0.000 OA
ENDBRANCH 83 92
BRANCH 79 95
ATOM     95  O4  SGN B   6     -31.201  51.935  11.4840  0.00  0.00     0.000 O
BRANCH 95 99
ATOM     96  C1  SGN B   6     -34.141  50.801  14.1820  0.00  0.00     0.000 C
ATOM     97  C2  SGN B   6     -33.036  51.692  14.7360  0.00  0.00     0.000 C
ATOM     98  C3  SGN B   6     -32.421  52.419  13.5400  0.00  0.00     0.000 C
ATOM     99  C4  SGN B   6     -31.771  51.335  12.6330  0.00  0.00     0.000 C
ATOM    100  C5  SGN B   6     -32.917  50.383  12.1880  0.00  0.00     0.000 C
ATOM    101  O5  SGN B   6     -33.598  49.829  13.3090  0.00  0.00     0.000 O
BRANCH 97 104
ATOM    102   N  SGN B   6     -33.513  52.626  15.7610  0.00  0.00     0.000 N
ATOM    104  HD  SGN B   6     -32.854  52.856  16.2740  0.00  0.00     0.000 HD
ATOM    104 @NS  SGN B   6     -33.441  52.132  17.3440  0.00  0.00     0.000 S
ATOM    105   O  SGN B   6     -32.851  50.811  17.3650  0.00  0.00     0.000 OA
ATOM    106   O  SGN B   6     -32.634  53.102  18.0460  0.00  0.00     0.000 OA
ATOM    107   O  SGN B   6     -34.807  52.104  17.8160  0.00  0.00     0.000 OA
ENDBRANCH 97 104
BRANCH 100 108
ATOM    108   C  SGN B   6     -32.505  49.199  11.3210  0.00  0.00     0.000 C
ATOM    109   O  SGN B   6     -31.819  48.259  12.1100  0.00  0.00     0.000 O
ATOM    110  @S  SGN B   6     -31.219  46.897  11.6040  0.00  0.00     0.000 S
ATOM    111   O  SGN B   6     -30.638  47.175  10.3120  0.00  0.00     0.000 OA
ATOM    112   O  SGN B   6     -30.218  46.501  12.5810  0.00  0.00     0.000 OA
ATOM    113   O  SGN B   6     -32.335  45.981  11.5290  0.00  0.00     0.000 OA
ENDBRANCH 100 108
ENDBRANCH 95 99
ENDBRANCH 79 95
ENDBRANCH 78 82
ENDBRANCH 58 78
ENDBRANCH 57 61
ENDBRANCH 41 57
ENDBRANCH 40 44
ENDBRANCH 20 40
ENDBRANCH 19 23
ENDBRANCH 1 19
TORSDOF 22
ENDMDL
MODEL 78
REMARK VINA RESULT:       2.6      4.622     13.676
ROOT
ATOM      1  C1  IDS B   1     -23.175  53.164  12.2970  0.00  0.00     0.000 C
ATOM      2  C2  IDS B   1     -24.154  53.737  13.2880  0.00  0.00     0.000 C
ATOM      3  C3  IDS B   1     -23.705  55.024  14.0220  0.00  0.00     0.000 C
ATOM      4  C4  IDS B   1     -22.698  55.906  13.1940  0.00  0.00     0.000 C
ATOM      5  C5  IDS B   1     -21.841  55.071  12.2120  0.00  0.00     0.000 C
ATOM      6  O5  IDS B   1     -22.659  54.197  11.4820  0.00  0.00     0.000 O
ATOM      7   O  IDS B   1     -23.133  54.624  15.2640  0.00  0.00     0.000 O
ATOM      9  HD  IDS B   1     -22.818  55.397  15.0350  0.00  0.00     0.000 HD
ATOM      9   O  IDS B   1     -23.454  56.825  12.4380  0.00  0.00     0.000 O
ATOM     11  HD  IDS B   1     -23.138  57.598  12.2100  0.00  0.00     0.000 HD
ENDROOT
BRANCH 2 11
ATOM     11   O  IDS B   1     -25.341  54.048  12.6440  0.00  0.00     0.000 O
ATOM     12  @S  IDS B   1     -26.404  53.012  12.2280  0.00  0.00     0.000 S
ATOM     13   O  IDS B   1     -25.647  51.788  12.0570  0.00  0.00     0.000 OA
ATOM     14   O  IDS B   1     -27.356  52.930  13.3210  0.00  0.00     0.000 OA
ATOM     15   O  IDS B   1     -26.993  53.519  11.0050  0.00  0.00     0.000 OA
ENDBRANCH 2 11
BRANCH 5 16
ATOM     16 @CA  IDS B   1     -20.942  55.852  11.2580  0.00  0.00     0.000 C
ATOM     17   O  IDS B   1     -20.472  55.335  10.2470  0.00  0.00     0.000 OA
ATOM     18   O  IDS B   1     -20.676  57.031  11.4770  0.00  0.00     0.000 OA
ENDBRANCH 5 16
BRANCH 1 19
ATOM     19  O4  SGN B   2     -22.141  52.531  13.0220  0.00  0.00     0.000 O
BRANCH 19 23
ATOM     20  C1  SGN B   2     -21.008  48.613  13.3750  0.00  0.00     0.000 C
ATOM     21  C2  SGN B   2     -21.356  49.148  12.0030  0.00  0.00     0.000 C
ATOM     22  C3  SGN B   2     -21.163  50.621  11.9840  0.00  0.00     0.000 C
ATOM     23  C4  SGN B   2     -22.166  51.150  12.9840  0.00  0.00     0.000 C
ATOM     24  C5  SGN B   2     -21.702  50.646  14.3070  0.00  0.00     0.000 C
ATOM     25  O5  SGN B   2     -21.817  49.270  14.3410  0.00  0.00     0.000 O
ATOM     26   O  SGN B   2     -21.441  51.107  10.7180  0.00  0.00     0.000 O
ATOM     28  HD  SGN B   2     -21.778  51.472  10.0090  0.00  0.00     0.000 HD
BRANCH 21 30
ATOM     28   N  SGN B   2     -21.573  47.735  11.8910  0.00  0.00     0.000 N
ATOM     30  HD  SGN B   2     -20.847  47.461  12.2760  0.00  0.00     0.000 HD
ATOM     30 @NS  SGN B   2     -21.097  47.024  10.5090  0.00  0.00     0.000 S
ATOM     31   O  SGN B   2     -20.393  47.972   9.7130  0.00  0.00     0.000 OA
ATOM     32   O  SGN B   2     -20.254  45.988  10.9440  0.00  0.00     0.000 OA
ATOM     33   O  SGN B   2     -22.277  46.590   9.8620  0.00  0.00     0.000 OA
ENDBRANCH 21 30
BRANCH 24 34
ATOM     34   C  SGN B   2     -22.443  51.167  15.4820  0.00  0.00     0.000 C
ATOM     35   O  SGN B   2     -23.793  51.093  15.1900  0.00  0.00     0.000 O
ATOM     36  @S  SGN B   2     -24.891  51.334  16.2200  0.00  0.00     0.000 S
ATOM     37   O  SGN B   2     -25.178  52.750  16.1110  0.00  0.00     0.000 OA
ATOM     38   O  SGN B   2     -26.002  50.488  15.8480  0.00  0.00     0.000 OA
ATOM     39   O  SGN B   2     -24.307  50.947  17.4970  0.00  0.00     0.000 OA
ENDBRANCH 24 34
BRANCH 20 40
ATOM     40  O4  IDS B   3     -19.652  48.797  13.6420  0.00  0.00     0.000 O
BRANCH 40 44
ATOM     41  C1  IDS B   3     -16.322  48.248  14.5980  0.00  0.00     0.000 C
ATOM     42  C2  IDS B   3     -16.981  47.364  13.5420  0.00  0.00     0.000 C
ATOM     43  C3  IDS B   3     -18.387  46.840  13.8940  0.00  0.00     0.000 C
ATOM     44  C4  IDS B   3     -19.200  47.904  14.6040  0.00  0.00     0.000 C
ATOM     45  C5  IDS B   3     -18.375  48.647  15.6670  0.00  0.00     0.000 C
ATOM     46  O5  IDS B   3     -17.247  49.204  15.0960  0.00  0.00     0.000 O
ATOM     47   O  IDS B   3     -18.269  45.725  14.7530  0.00  0.00     0.000 O
ATOM     49  HD  IDS B   3     -18.647  46.230  14.1590  0.00  0.00     0.000 HD
BRANCH 42 49
ATOM     49   O  IDS B   3     -17.100  48.098  12.3570  0.00  0.00     0.000 O
ATOM     50   O  IDS B   3     -15.466  46.766  11.3080  0.00  0.00     0.000 OA
ATOM     51   O  IDS B   3     -17.351  47.471  10.0620  0.00  0.00     0.000 OA
ATOM     52   O  IDS B   3     -15.724  49.037  10.7490  0.00  0.00     0.000 OA
ATOM     53  @S  IDS B   3     -16.370  47.823  11.0400  0.00  0.00     0.000 S
ENDBRANCH 42 49
BRANCH 45 54
ATOM     54 @CA  IDS B   3     -19.133  49.715  16.4540  0.00  0.00     0.000 C
ATOM     55   O  IDS B   3     -18.948  50.887  16.2660  0.00  0.00     0.000 OA
ATOM     56   O  IDS B   3     -19.948  49.421  17.2640  0.00  0.00     0.000 OA
ENDBRANCH 45 54
BRANCH 41 57
ATOM     57  O4  SGN B   4     -15.806  47.454  15.6150  0.00  0.00     0.000 O
BRANCH 57 61
ATOM     58  C1  SGN B   4     -13.030  50.308  16.6870  0.00  0.00     0.000 C
ATOM     59  C2  SGN B   4     -12.525  49.219  15.7550  0.00  0.00     0.000 C
ATOM     60  C3  SGN B   4     -13.707  48.479  15.1360  0.00  0.00     0.000 C
ATOM     61  C4  SGN B   4     -14.640  47.925  16.2190  0.00  0.00     0.000 C
ATOM     62  C5  SGN B   4     -15.013  49.075  17.1500  0.00  0.00     0.000 C
ATOM     63  O5  SGN B   4     -13.859  49.710  17.6690  0.00  0.00     0.000 O
ATOM     64   O  SGN B   4     -13.217  47.399  14.3690  0.00  0.00     0.000 O
ATOM     66  HD  SGN B   4     -13.478  46.608  14.6070  0.00  0.00     0.000 HD
BRANCH 59 68
ATOM     66   N  SGN B   4     -11.078  49.158  15.7780  0.00  0.00     0.000 N
ATOM     68  HD  SGN B   4     -11.719  49.330  16.3350  0.00  0.00     0.000 HD
ATOM     68 @NS  SGN B   4     -10.195  50.356  15.0900  0.00  0.00     0.000 S
ATOM     69   O  SGN B   4     -10.866  50.781  13.8970  0.00  0.00     0.000 OA
ATOM     70   O  SGN B   4     -10.133  51.413  16.0580  0.00  0.00     0.000 OA
ATOM     71   O  SGN B   4      -8.924  49.752  14.8250  0.00  0.00     0.000 OA
ENDBRANCH 59 68
BRANCH 62 72
ATOM     72   C  SGN B   4     -15.839  48.625  18.3450  0.00  0.00     0.000 C
ATOM     73   O  SGN B   4     -14.917  48.376  19.3640  0.00  0.00     0.000 O
ATOM     74  @S  SGN B   4     -15.130  48.543  20.8790  0.00  0.00     0.000 S
ATOM     75   O  SGN B   4     -16.222  47.720  21.2460  0.00  0.00     0.000 OA
ATOM     76   O  SGN B   4     -13.897  48.099  21.4570  0.00  0.00     0.000 OA
ATOM     77   O  SGN B   4     -15.426  49.921  21.0800  0.00  0.00     0.000 OA
ENDBRANCH 62 72
BRANCH 58 78
ATOM     78  O4  IDS B   5     -13.705  51.306  15.9490  0.00  0.00     0.000 O
BRANCH 78 82
ATOM     79  C1  IDS B   5     -15.251  54.095  14.5960  0.00  0.00     0.000 C
ATOM     80  C2  IDS B   5     -13.829  53.797  14.2320  0.00  0.00     0.000 C
ATOM     81  C3  IDS B   5     -12.927  53.532  15.4340  0.00  0.00     0.000 C
ATOM     82  C4  IDS B   5     -13.569  52.616  16.4570  0.00  0.00     0.000 C
ATOM     83  C5  IDS B   5     -14.929  53.160  16.7570  0.00  0.00     0.000 C
ATOM     84  O5  IDS B   5     -15.705  53.175  15.5730  0.00  0.00     0.000 O
ATOM     85   O  IDS B   5     -12.677  54.765  16.0640  0.00  0.00     0.000 O
ATOM     87  HD  IDS B   5     -12.986  54.035  16.4130  0.00  0.00     0.000 HD
BRANCH 80 87
ATOM     87   O  IDS B   5     -13.812  52.661  13.4610  0.00  0.00     0.000 O
ATOM     88  @S  IDS B   5     -13.482  52.565  11.9690  0.00  0.00     0.000 S
ATOM     89   O  IDS B   5     -12.224  53.205  11.8290  0.00  0.00     0.000 OA
ATOM     90   O  IDS B   5     -13.465  51.175  11.6750  0.00  0.00     0.000 OA
ATOM     91   O  IDS B   5     -14.531  53.242  11.2910  0.00  0.00     0.000 OA
ENDBRANCH 80 87
BRANCH 83 92
ATOM     92 @CA  IDS B   5     -15.632  52.453  17.9100  0.00  0.00     0.000 C
ATOM     93   O  IDS B   5     -16.768  51.992  17.7740  0.00  0.00     0.000 OA
ATOM     94   O  IDS B   5     -15.075  52.333  19.0070  0.00  0.00     0.000 OA
ENDBRANCH 83 92
BRANCH 79 95
ATOM     95  O4  SGN B   6     -15.354  55.411  15.0260  0.00  0.00     0.000 O
BRANCH 95 99
ATOM     96  C1  SGN B   6     -18.440  58.014  15.9820  0.00  0.00     0.000 C
ATOM     97  C2  SGN B   6     -18.448  56.675  16.7100  0.00  0.00     0.000 C
ATOM     98  C3  SGN B   6     -17.016  56.140  16.6560  0.00  0.00     0.000 C
ATOM     99  C4  SGN B   6     -16.682  55.885  15.1580  0.00  0.00     0.000 C
ATOM    100  C5  SGN B   6     -16.801  57.257  14.4360  0.00  0.00     0.000 C
ATOM    101  O5  SGN B   6     -18.090  57.833  14.6240  0.00  0.00     0.000 O
BRANCH 97 104
ATOM    102   N  SGN B   6     -19.343  57.395  17.6210  0.00  0.00     0.000 N
ATOM    104  HD  SGN B   6     -19.261  57.076  18.4220  0.00  0.00     0.000 HD
ATOM    104 @NS  SGN B   6     -20.569  56.533  18.3340  0.00  0.00     0.000 S
ATOM    105   O  SGN B   6     -20.452  55.159  17.8950  0.00  0.00     0.000 OA
ATOM    106   O  SGN B   6     -20.395  56.666  19.7620  0.00  0.00     0.000 OA
ATOM    107   O  SGN B   6     -21.801  57.130  17.8690  0.00  0.00     0.000 OA
ENDBRANCH 97 104
BRANCH 100 108
ATOM    108   C  SGN B   6     -16.562  57.244  12.9300  0.00  0.00     0.000 C
ATOM    109   O  SGN B   6     -16.284  58.551  12.4910  0.00  0.00     0.000 O
ATOM    110  @S  SGN B   6     -15.985  58.978  11.0080  0.00  0.00     0.000 S
ATOM    111   O  SGN B   6     -16.898  58.221  10.1860  0.00  0.00     0.000 OA
ATOM    112   O  SGN B   6     -16.239  60.408  10.9340  0.00  0.00     0.000 OA
ATOM    113   O  SGN B   6     -14.602  58.632  10.7720  0.00  0.00     0.000 OA
ENDBRANCH 100 108
ENDBRANCH 95 99
ENDBRANCH 79 95
ENDBRANCH 78 82
ENDBRANCH 58 78
ENDBRANCH 57 61
ENDBRANCH 41 57
ENDBRANCH 40 44
ENDBRANCH 20 40
ENDBRANCH 19 23
ENDBRANCH 1 19
TORSDOF 22
ENDMDL
MODEL 79
REMARK VINA RESULT:       2.6      6.198     12.960
ROOT
ATOM      1  C1  IDS B   1     -17.565  57.819  15.0770  0.00  0.00     0.000 C
ATOM      2  C2  IDS B   1     -16.224  58.378  15.4740  0.00  0.00     0.000 C
ATOM      3  C3  IDS B   1     -15.087  58.224  14.4360  0.00  0.00     0.000 C
ATOM      4  C4  IDS B   1     -15.593  58.170  12.9460  0.00  0.00     0.000 C
ATOM      5  C5  IDS B   1     -17.025  57.595  12.8230  0.00  0.00     0.000 C
ATOM      6  O5  IDS B   1     -17.873  58.210  13.7540  0.00  0.00     0.000 O
ATOM      7   O  IDS B   1     -14.365  57.043  14.7730  0.00  0.00     0.000 O
ATOM      9  HD  IDS B   1     -14.257  57.218  13.9320  0.00  0.00     0.000 HD
ATOM      9   O  IDS B   1     -15.611  59.491  12.4520  0.00  0.00     0.000 O
ATOM     11  HD  IDS B   1     -15.503  59.666  11.6110  0.00  0.00     0.000 HD
ENDROOT
BRANCH 2 11
ATOM     11   O  IDS B   1     -16.342  59.736  15.7270  0.00  0.00     0.000 O
ATOM     12  @S  IDS B   1     -16.794  60.336  17.0720  0.00  0.00     0.000 S
ATOM     13   O  IDS B   1     -17.614  59.296  17.6580  0.00  0.00     0.000 OA
ATOM     14   O  IDS B   1     -15.588  60.593  17.8390  0.00  0.00     0.000 OA
ATOM     15   O  IDS B   1     -17.519  61.547  16.7410  0.00  0.00     0.000 OA
ENDBRANCH 2 11
BRANCH 5 16
ATOM     16 @CA  IDS B   1     -17.661  57.642  11.4370  0.00  0.00     0.000 C
ATOM     17   O  IDS B   1     -18.708  57.050  11.1880  0.00  0.00     0.000 OA
ATOM     18   O  IDS B   1     -17.141  58.293  10.5340  0.00  0.00     0.000 OA
ENDBRANCH 5 16
BRANCH 1 19
ATOM     19  O4  SGN B   2     -17.500  56.412  15.1830  0.00  0.00     0.000 O
BRANCH 19 23
ATOM     20  C1  SGN B   2     -20.165  53.619  16.5450  0.00  0.00     0.000 C
ATOM     21  C2  SGN B   2     -20.674  54.744  15.6710  0.00  0.00     0.000 C
ATOM     22  C3  SGN B   2     -19.560  55.265  14.8370  0.00  0.00     0.000 C
ATOM     23  C4  SGN B   2     -18.571  55.828  15.8320  0.00  0.00     0.000 C
ATOM     24  C5  SGN B   2     -18.063  54.649  16.5880  0.00  0.00     0.000 C
ATOM     25  O5  SGN B   2     -19.090  54.106  17.3350  0.00  0.00     0.000 O
ATOM     26   O  SGN B   2     -20.034  56.267  14.0070  0.00  0.00     0.000 O
ATOM     28  HD  SGN B   2     -20.239  57.009  13.6120  0.00  0.00     0.000 HD
BRANCH 21 30
ATOM     28   N  SGN B   2     -21.732  54.004  15.0470  0.00  0.00     0.000 N
ATOM     30  HD  SGN B   2     -21.891  54.538  14.3830  0.00  0.00     0.000 HD
ATOM     30 @NS  SGN B   2     -23.238  54.261  15.6010  0.00  0.00     0.000 S
ATOM     31   O  SGN B   2     -23.215  55.332  16.5400  0.00  0.00     0.000 OA
ATOM     32   O  SGN B   2     -23.961  54.603  14.4460  0.00  0.00     0.000 OA
ATOM     33   O  SGN B   2     -23.645  53.054  16.2140  0.00  0.00     0.000 OA
ENDBRANCH 21 30
BRANCH 24 34
ATOM     34   C  SGN B   2     -16.949  54.929  17.5280  0.00  0.00     0.000 C
ATOM     35   O  SGN B   2     -15.791  54.423  16.9660  0.00  0.00     0.000 O
ATOM     36  @S  SGN B   2     -14.398  54.696  17.5220  0.00  0.00     0.000 S
ATOM     37   O  SGN B   2     -14.160  53.601  18.4410  0.00  0.00     0.000 OA
ATOM     38   O  SGN B   2     -13.497  54.712  16.3940  0.00  0.00     0.000 OA
ATOM     39   O  SGN B   2     -14.494  55.997  18.1690  0.00  0.00     0.000 OA
ENDBRANCH 24 34
BRANCH 20 40
ATOM     40  O4  IDS B   3     -19.769  52.534  15.7630  0.00  0.00     0.000 O
BRANCH 40 44
ATOM     41  C1  IDS B   3     -19.430  49.298  14.4530  0.00  0.00     0.000 C
ATOM     42  C2  IDS B   3     -20.809  49.944  14.5770  0.00  0.00     0.000 C
ATOM     43  C3  IDS B   3     -21.109  50.619  15.9300  0.00  0.00     0.000 C
ATOM     44  C4  IDS B   3     -19.886  51.339  16.4600  0.00  0.00     0.000 C
ATOM     45  C5  IDS B   3     -18.606  50.504  16.2930  0.00  0.00     0.000 C
ATOM     46  O5  IDS B   3     -18.427  50.162  14.9670  0.00  0.00     0.000 O
ATOM     47   O  IDS B   3     -21.487  49.635  16.8700  0.00  0.00     0.000 O
ATOM     49  HD  IDS B   3     -21.458  50.428  16.5230  0.00  0.00     0.000 HD
BRANCH 42 49
ATOM     49   O  IDS B   3     -20.929  50.928  13.5900  0.00  0.00     0.000 O
ATOM     50   O  IDS B   3     -21.630  49.328  12.0100  0.00  0.00     0.000 OA
ATOM     51   O  IDS B   3     -22.651  51.464  12.0170  0.00  0.00     0.000 OA
ATOM     52   O  IDS B   3     -20.398  51.221  11.3550  0.00  0.00     0.000 OA
ATOM     53  @S  IDS B   3     -21.436  50.723  12.1600  0.00  0.00     0.000 S
ENDBRANCH 42 49
BRANCH 45 54
ATOM     54 @CA  IDS B   3     -17.331  51.146  16.8350  0.00  0.00     0.000 C
ATOM     55   O  IDS B   3     -16.451  51.514  16.1050  0.00  0.00     0.000 OA
ATOM     56   O  IDS B   3     -17.177  51.324  17.9980  0.00  0.00     0.000 OA
ENDBRANCH 45 54
BRANCH 41 57
ATOM     57  O4  SGN B   4     -19.431  48.069  15.1020  0.00  0.00     0.000 O
BRANCH 57 61
ATOM     58  C1  SGN B   4     -15.899  46.589  13.5750  0.00  0.00     0.000 C
ATOM     59  C2  SGN B   4     -17.068  46.631  12.6040  0.00  0.00     0.000 C
ATOM     60  C3  SGN B   4     -18.165  47.538  13.1540  0.00  0.00     0.000 C
ATOM     61  C4  SGN B   4     -18.596  47.095  14.5570  0.00  0.00     0.000 C
ATOM     62  C5  SGN B   4     -17.343  46.997  15.4230  0.00  0.00     0.000 C
ATOM     63  O5  SGN B   4     -16.377  46.146  14.8340  0.00  0.00     0.000 O
ATOM     64   O  SGN B   4     -19.285  47.468  12.2960  0.00  0.00     0.000 O
ATOM     66  HD  SGN B   4     -20.023  47.185  12.6490  0.00  0.00     0.000 HD
BRANCH 59 68
ATOM     66   N  SGN B   4     -16.846  45.764  11.4650  0.00  0.00     0.000 N
ATOM     68  HD  SGN B   4     -16.673  45.759  12.3140  0.00  0.00     0.000 HD
ATOM     68 @NS  SGN B   4     -15.696  46.140  10.3580  0.00  0.00     0.000 S
ATOM     69   O  SGN B   4     -15.696  47.561  10.1750  0.00  0.00     0.000 OA
ATOM     70   O  SGN B   4     -14.451  45.684  10.9060  0.00  0.00     0.000 OA
ATOM     71   O  SGN B   4     -16.093  45.430   9.1800  0.00  0.00     0.000 OA
ENDBRANCH 59 68
BRANCH 62 72
ATOM     72   C  SGN B   4     -17.626  46.442  16.8100  0.00  0.00     0.000 C
ATOM     73   O  SGN B   4     -17.968  47.547  17.5930  0.00  0.00     0.000 O
ATOM     74  @S  SGN B   4     -18.937  47.584  18.7870  0.00  0.00     0.000 S
ATOM     75   O  SGN B   4     -18.458  46.663  19.7500  0.00  0.00     0.000 OA
ATOM     76   O  SGN B   4     -18.872  48.938  19.2500  0.00  0.00     0.000 OA
ATOM     77   O  SGN B   4     -20.204  47.185  18.2720  0.00  0.00     0.000 OA
ENDBRANCH 62 72
BRANCH 58 78
ATOM     78  O4  IDS B   5     -15.283  47.858  13.6510  0.00  0.00     0.000 O
BRANCH 78 82
ATOM     79  C1  IDS B   5     -13.261  50.670  13.6240  0.00  0.00     0.000 C
ATOM     80  C2  IDS B   5     -13.418  49.869  12.3680  0.00  0.00     0.000 C
ATOM     81  C3  IDS B   5     -13.193  48.372  12.5600  0.00  0.00     0.000 C
ATOM     82  C4  IDS B   5     -13.879  47.830  13.7970  0.00  0.00     0.000 C
ATOM     83  C5  IDS B   5     -13.498  48.709  14.9450  0.00  0.00     0.000 C
ATOM     84  O5  IDS B   5     -13.935  50.032  14.6940  0.00  0.00     0.000 O
ATOM     85   O  IDS B   5     -11.810  48.162  12.7130  0.00  0.00     0.000 O
ATOM     87  HD  IDS B   5     -12.454  47.908  13.2330  0.00  0.00     0.000 HD
BRANCH 80 87
ATOM     87   O  IDS B   5     -14.705  50.025  11.9170  0.00  0.00     0.000 O
ATOM     88  @S  IDS B   5     -15.306  51.270  11.2580  0.00  0.00     0.000 S
ATOM     89   O  IDS B   5     -14.429  51.579  10.1870  0.00  0.00     0.000 OA
ATOM     90   O  IDS B   5     -16.612  50.888  10.8500  0.00  0.00     0.000 OA
ATOM     91   O  IDS B   5     -15.332  52.273  12.2640  0.00  0.00     0.000 OA
ENDBRANCH 80 87
BRANCH 83 92
ATOM     92 @CA  IDS B   5     -13.960  48.185  16.2990  0.00  0.00     0.000 C
ATOM     93   O  IDS B   5     -14.640  48.886  17.0520  0.00  0.00     0.000 OA
ATOM     94   O  IDS B   5     -13.656  47.045  16.6700  0.00  0.00     0.000 OA
ENDBRANCH 83 92
BRANCH 79 95
ATOM     95  O4  SGN B   6     -11.911  50.857  13.8900  0.00  0.00     0.000 O
BRANCH 95 99
ATOM     96  C1  SGN B   6      -9.655  53.293  16.3780  0.00  0.00     0.000 C
ATOM     97  C2  SGN B   6     -10.675  52.395  17.0700  0.00  0.00     0.000 C
ATOM     98  C3  SGN B   6     -10.968  51.245  16.1060  0.00  0.00     0.000 C
ATOM     99  C4  SGN B   6     -11.634  51.866  14.8440  0.00  0.00     0.000 C
ATOM    100  C5  SGN B   6     -10.601  52.860  14.2410  0.00  0.00     0.000 C
ATOM    101  O5  SGN B   6     -10.204  53.840  15.1950  0.00  0.00     0.000 O
BRANCH 97 104
ATOM    102   N  SGN B   6     -11.218  53.155  18.1990  0.00  0.00     0.000 N
ATOM    104  HD  SGN B   6     -10.592  53.639  18.5520  0.00  0.00     0.000 HD
ATOM    104 @NS  SGN B   6     -10.619  52.819  19.7100  0.00  0.00     0.000 S
ATOM    105   O  SGN B   6      -9.599  51.804  19.5620  0.00  0.00     0.000 OA
ATOM    106   O  SGN B   6     -10.087  54.057  20.2310  0.00  0.00     0.000 OA
ATOM    107   O  SGN B   6     -11.739  52.331  20.4840  0.00  0.00     0.000 OA
ENDBRANCH 97 104
BRANCH 100 108
ATOM    108   C  SGN B   6     -11.058  53.634  13.0090  0.00  0.00     0.000 C
ATOM    109   O  SGN B   6     -12.307  54.225  13.2660  0.00  0.00     0.000 O
ATOM    110  @S  SGN B   6     -13.133  55.105  12.2590  0.00  0.00     0.000 S
ATOM    111   O  SGN B   6     -12.993  54.469  10.9710  0.00  0.00     0.000 OA
ATOM    112   O  SGN B   6     -14.508  55.088  12.7310  0.00  0.00     0.000 OA
ATOM    113   O  SGN B   6     -12.532  56.418  12.3020  0.00  0.00     0.000 OA
ENDBRANCH 100 108
ENDBRANCH 95 99
ENDBRANCH 79 95
ENDBRANCH 78 82
ENDBRANCH 58 78
ENDBRANCH 57 61
ENDBRANCH 41 57
ENDBRANCH 40 44
ENDBRANCH 20 40
ENDBRANCH 19 23
ENDBRANCH 1 19
TORSDOF 22
ENDMDL
MODEL 80
REMARK VINA RESULT:       2.8      4.417     12.942
ROOT
ATOM      1  C1  IDS B   1     -25.030  52.995  10.5930  0.00  0.00     0.000 C
ATOM      2  C2  IDS B   1     -26.414  53.425  11.0030  0.00  0.00     0.000 C
ATOM      3  C3  IDS B   1     -26.525  54.818  11.6680  0.00  0.00     0.000 C
ATOM      4  C4  IDS B   1     -25.407  55.828  11.2120  0.00  0.00     0.000 C
ATOM      5  C5  IDS B   1     -24.095  55.118  10.7960  0.00  0.00     0.000 C
ATOM      6  O5  IDS B   1     -24.378  54.056   9.9250  0.00  0.00     0.000 O
ATOM      7   O  IDS B   1     -26.488  54.617  13.0770  0.00  0.00     0.000 O
ATOM      9  HD  IDS B   1     -26.227  55.422  12.8930  0.00  0.00     0.000 HD
ATOM      9   O  IDS B   1     -25.895  56.531  10.0910  0.00  0.00     0.000 O
ATOM     11  HD  IDS B   1     -25.633  57.335   9.9070  0.00  0.00     0.000 HD
ENDROOT
BRANCH 2 11
ATOM     11   O  IDS B   1     -27.241  53.454   9.8910  0.00  0.00     0.000 O
ATOM     12  @S  IDS B   1     -28.258  52.353   9.5330  0.00  0.00     0.000 S
ATOM     13   O  IDS B   1     -27.706  51.160  10.1410  0.00  0.00     0.000 OA
ATOM     14   O  IDS B   1     -29.524  52.747  10.1250  0.00  0.00     0.000 OA
ATOM     15   O  IDS B   1     -28.303  52.313   8.0840  0.00  0.00     0.000 OA
ENDBRANCH 2 11
BRANCH 5 16
ATOM     16 @CA  IDS B   1     -23.004  56.000  10.1960  0.00  0.00     0.000 C
ATOM     17   O  IDS B   1     -22.885  57.182  10.5100  0.00  0.00     0.000 OA
ATOM     18   O  IDS B   1     -22.203  55.537   9.3870  0.00  0.00     0.000 OA
ENDBRANCH 5 16
BRANCH 1 19
ATOM     19  O4  SGN B   2     -24.324  52.625  11.7590  0.00  0.00     0.000 O
BRANCH 19 23
ATOM     20  C1  SGN B   2     -24.202  48.951  13.5610  0.00  0.00     0.000 C
ATOM     21  C2  SGN B   2     -24.792  49.060  12.1720  0.00  0.00     0.000 C
ATOM     22  C3  SGN B   2     -24.236  50.259  11.4920  0.00  0.00     0.000 C
ATOM     23  C4  SGN B   2     -24.719  51.426  12.3220  0.00  0.00     0.000 C
ATOM     24  C5  SGN B   2     -24.028  51.285  13.6340  0.00  0.00     0.000 C
ATOM     25  O5  SGN B   2     -24.484  50.148  14.2720  0.00  0.00     0.000 O
ATOM     26   O  SGN B   2     -24.744  50.336  10.2060  0.00  0.00     0.000 O
ATOM     28  HD  SGN B   2     -25.170  50.526   9.4770  0.00  0.00     0.000 HD
BRANCH 21 30
ATOM     28   N  SGN B   2     -24.415  47.763  11.6910  0.00  0.00     0.000 N
ATOM     30  HD  SGN B   2     -24.565  47.889  10.8470  0.00  0.00     0.000 HD
ATOM     30 @NS  SGN B   2     -25.557  46.608  11.7120  0.00  0.00     0.000 S
ATOM     31   O  SGN B   2     -26.803  47.188  12.0860  0.00  0.00     0.000 OA
ATOM     32   O  SGN B   2     -25.581  46.143  10.3870  0.00  0.00     0.000 OA
ATOM     33   O  SGN B   2     -25.134  45.651  12.6640  0.00  0.00     0.000 OA
ENDBRANCH 21 30
BRANCH 24 34
ATOM     34   C  SGN B   2     -24.221  52.414  14.5780  0.00  0.00     0.000 C
ATOM     35   O  SGN B   2     -23.119  53.244  14.4670  0.00  0.00     0.000 O
ATOM     36  @S  SGN B   2     -23.036  54.621  15.1140  0.00  0.00     0.000 S
ATOM     37   O  SGN B   2     -22.432  54.372  16.4070  0.00  0.00     0.000 OA
ATOM     38   O  SGN B   2     -22.224  55.440  14.2440  0.00  0.00     0.000 OA
ATOM     39   O  SGN B   2     -24.412  55.092  15.1870  0.00  0.00     0.000 OA
ENDBRANCH 24 34
BRANCH 20 40
ATOM     40  O4  IDS B   3     -22.829  48.715  13.4910  0.00  0.00     0.000 O
BRANCH 40 44
ATOM     41  C1  IDS B   3     -19.704  47.164  13.8550  0.00  0.00     0.000 C
ATOM     42  C2  IDS B   3     -20.907  46.374  13.3420  0.00  0.00     0.000 C
ATOM     43  C3  IDS B   3     -22.211  46.551  14.1440  0.00  0.00     0.000 C
ATOM     44  C4  IDS B   3     -22.384  47.989  14.5880  0.00  0.00     0.000 C
ATOM     45  C5  IDS B   3     -21.074  48.591  15.1220  0.00  0.00     0.000 C
ATOM     46  O5  IDS B   3     -20.080  48.497  14.1680  0.00  0.00     0.000 O
ATOM     47   O  IDS B   3     -22.167  45.734  15.2950  0.00  0.00     0.000 O
ATOM     49  HD  IDS B   3     -22.544  46.180  14.6560  0.00  0.00     0.000 HD
BRANCH 42 49
ATOM     49   O  IDS B   3     -21.174  46.773  12.0280  0.00  0.00     0.000 O
ATOM     50   O  IDS B   3     -19.753  45.099  11.1780  0.00  0.00     0.000 OA
ATOM     51   O  IDS B   3     -21.776  45.576  10.0460  0.00  0.00     0.000 OA
ATOM     52   O  IDS B   3     -20.017  47.151  10.0580  0.00  0.00     0.000 OA
ATOM     53  @S  IDS B   3     -20.652  46.107  10.7520  0.00  0.00     0.000 S
ENDBRANCH 42 49
BRANCH 45 54
ATOM     54 @CA  IDS B   3     -21.172  50.030  15.6230  0.00  0.00     0.000 C
ATOM     55   O  IDS B   3     -21.675  50.297  16.6800  0.00  0.00     0.000 OA
ATOM     56   O  IDS B   3     -20.733  50.934  14.9920  0.00  0.00     0.000 OA
ENDBRANCH 45 54
BRANCH 41 57
ATOM     57  O4  SGN B   4     -19.154  46.514  14.9530  0.00  0.00     0.000 O
BRANCH 57 61
ATOM     58  C1  SGN B   4     -15.565  48.542  15.0100  0.00  0.00     0.000 C
ATOM     59  C2  SGN B   4     -15.699  47.475  13.9370  0.00  0.00     0.000 C
ATOM     60  C3  SGN B   4     -17.166  47.089  13.7710  0.00  0.00     0.000 C
ATOM     61  C4  SGN B   4     -17.774  46.644  15.1060  0.00  0.00     0.000 C
ATOM     62  C5  SGN B   4     -17.506  47.742  16.1320  0.00  0.00     0.000 C
ATOM     63  O5  SGN B   4     -16.125  48.043  16.2130  0.00  0.00     0.000 O
ATOM     64   O  SGN B   4     -17.253  46.016  12.8570  0.00  0.00     0.000 O
ATOM     66  HD  SGN B   4     -17.604  45.283  13.1570  0.00  0.00     0.000 HD
BRANCH 59 68
ATOM     66   N  SGN B   4     -14.286  47.794  13.9200  0.00  0.00     0.000 N
ATOM     68  HD  SGN B   4     -15.025  48.184  14.1440  0.00  0.00     0.000 HD
ATOM     68 @NS  SGN B   4     -13.537  48.127  12.4990  0.00  0.00     0.000 S
ATOM     69   O  SGN B   4     -14.080  47.264  11.4910  0.00  0.00     0.000 OA
ATOM     70   O  SGN B   4     -13.818  49.504  12.2140  0.00  0.00     0.000 OA
ATOM     71   O  SGN B   4     -12.153  47.871  12.7600  0.00  0.00     0.000 OA
ENDBRANCH 59 68
BRANCH 62 72
ATOM     72   C  SGN B   4     -17.953  47.361  17.5350  0.00  0.00     0.000 C
ATOM     73   O  SGN B   4     -16.860  47.631  18.3620  0.00  0.00     0.000 O
ATOM     74  @S  SGN B   4     -16.889  48.075  19.8350  0.00  0.00     0.000 S
ATOM     75   O  SGN B   4     -17.586  47.080  20.5630  0.00  0.00     0.000 OA
ATOM     76   O  SGN B   4     -15.507  48.151  20.2050  0.00  0.00     0.000 OA
ATOM     77   O  SGN B   4     -17.586  49.317  19.8530  0.00  0.00     0.000 OA
ENDBRANCH 62 72
BRANCH 58 78
ATOM     78  O4  IDS B   5     -16.184  49.740  14.5870  0.00  0.00     0.000 O
BRANCH 78 82
ATOM     79  C1  IDS B   5     -17.225  52.933  13.7410  0.00  0.00     0.000 C
ATOM     80  C2  IDS B   5     -16.134  52.284  12.9460  0.00  0.00     0.000 C
ATOM     81  C3  IDS B   5     -15.013  51.699  13.8010  0.00  0.00     0.000 C
ATOM     82  C4  IDS B   5     -15.532  50.923  14.9950  0.00  0.00     0.000 C
ATOM     83  C5  IDS B   5     -16.519  51.795  15.7040  0.00  0.00     0.000 C
ATOM     84  O5  IDS B   5     -17.589  52.105  14.8320  0.00  0.00     0.000 O
ATOM     85   O  IDS B   5     -14.242  52.769  14.2910  0.00  0.00     0.000 O
ATOM     87  HD  IDS B   5     -14.618  52.128  14.7350  0.00  0.00     0.000 HD
BRANCH 80 87
ATOM     87   O  IDS B   5     -16.680  51.244  12.2350  0.00  0.00     0.000 O
ATOM     88  @S  IDS B   5     -16.972  51.209  10.7330  0.00  0.00     0.000 S
ATOM     89   O  IDS B   5     -15.748  51.565  10.1120  0.00  0.00     0.000 OA
ATOM     90   O  IDS B   5     -17.398  49.880  10.4630  0.00  0.00     0.000 OA
ATOM     91   O  IDS B   5     -18.007  52.157  10.5120  0.00  0.00     0.000 OA
ENDBRANCH 80 87
BRANCH 83 92
ATOM     92 @CA  IDS B   5     -16.993  51.227  17.0360  0.00  0.00     0.000 C
ATOM     93   O  IDS B   5     -18.187  50.993  17.2370  0.00  0.00     0.000 OA
ATOM     94   O  IDS B   5     -16.186  50.996  17.9450  0.00  0.00     0.000 OA
ENDBRANCH 83 92
BRANCH 79 95
ATOM     95  O4  SGN B   6     -16.813  54.194  14.1530  0.00  0.00     0.000 O
BRANCH 95 99
ATOM     96  C1  SGN B   6     -18.604  57.472  15.9580  0.00  0.00     0.000 C
ATOM     97  C2  SGN B   6     -18.867  56.122  16.6160  0.00  0.00     0.000 C
ATOM     98  C3  SGN B   6     -17.733  55.195  16.1780  0.00  0.00     0.000 C
ATOM     99  C4  SGN B   6     -17.854  55.023  14.6370  0.00  0.00     0.000 C
ATOM    100  C5  SGN B   6     -17.695  56.442  14.0180  0.00  0.00     0.000 C
ATOM    101  O5  SGN B   6     -18.654  57.351  14.5500  0.00  0.00     0.000 O
BRANCH 97 104
ATOM    102   N  SGN B   6     -20.094  55.690  17.2920  0.00  0.00     0.000 N
ATOM    104  HD  SGN B   6     -20.660  56.345  17.3160  0.00  0.00     0.000 HD
ATOM    104 @NS  SGN B   6     -20.487  56.435  18.7210  0.00  0.00     0.000 S
ATOM    105   O  SGN B   6     -19.480  57.440  18.9840  0.00  0.00     0.000 OA
ATOM    106   O  SGN B   6     -21.799  57.012  18.5430  0.00  0.00     0.000 OA
ATOM    107   O  SGN B   6     -20.471  55.399  19.7300  0.00  0.00     0.000 OA
ENDBRANCH 97 104
BRANCH 100 108
ATOM    108   C  SGN B   6     -17.829  56.530  12.5020  0.00  0.00     0.000 C
ATOM    109   O  SGN B   6     -18.478  57.729  12.1600  0.00  0.00     0.000 O
ATOM    110  @S  SGN B   6     -18.819  58.206  10.7020  0.00  0.00     0.000 S
ATOM    111   O  SGN B   6     -19.261  57.029   9.9930  0.00  0.00     0.000 OA
ATOM    112   O  SGN B   6     -19.876  59.197  10.8310  0.00  0.00     0.000 OA
ATOM    113   O  SGN B   6     -17.590  58.751  10.1710  0.00  0.00     0.000 OA
ENDBRANCH 100 108
ENDBRANCH 95 99
ENDBRANCH 79 95
ENDBRANCH 78 82
ENDBRANCH 58 78
ENDBRANCH 57 61
ENDBRANCH 41 57
ENDBRANCH 40 44
ENDBRANCH 20 40
ENDBRANCH 19 23
ENDBRANCH 1 19
TORSDOF 22
ENDMDL
