ROOT
ATOM      1  C1  IDS B   1     -15.100  57.912   14.020  0.00  0.00     0.000 C
ATOM      2  C2  IDS B   1     -14.900  58.758   12.790  0.00  0.00     0.000 C
ATOM      3  C3  IDS B   1     -14.720  60.276   13.030  0.00  0.00     0.000 C
ATOM      4  C4  IDS B   1     -14.090  60.625   14.430  0.00  0.00     0.000 C
ATOM      5  C5  IDS B   1     -14.410  59.563   15.510  0.00  0.00     0.000 C
ATOM      6  O5  IDS B   1     -14.160  58.277   15.010  0.00  0.00     0.000 O
ATOM      7   O  IDS B   1     -16.000  60.882   12.880  0.00  0.00     0.000 O
ATOM      9  HD  IDS B   1     -15.500  61.382   13.380  0.00  0.00     0.000 HD
ATOM      9   O  IDS B   1     -12.690  60.674   14.270  0.00  0.00     0.000 O
ATOM     11  HD  IDS B   1     -12.190  61.174   14.770  0.00  0.00     0.000 HD
ENDROOT
BRANCH 2 11
ATOM     11   O  IDS B   1     -13.770  58.332   12.110  0.00  0.00     0.000 O
ATOM     12  @S  IDS B   1     -13.370  58.808   10.700  0.00  0.00     0.000 S
ATOM     13   O  IDS B   1     -14.630  59.182   10.090  0.00  0.00     0.000 OA
ATOM     14   O  IDS B   1     -12.480  59.941   10.880  0.00  0.00     0.000 OA
ATOM     15   O  IDS B   1     -12.720  57.676   10.070  0.00  0.00     0.000 OA
ENDBRANCH 2 11
BRANCH 5 16
ATOM     16 @CA  IDS B   1     -13.720  59.734   16.860  0.00  0.00     0.000 C
ATOM     17   O  IDS B   1     -13.330  60.832   17.250  0.00  0.00     0.000 OA
ATOM     18   O  IDS B   1     -13.550  58.768   17.600  0.00  0.00     0.000 OA
ENDBRANCH 5 16
BRANCH 1 19
ATOM     19  O4  SGN B   2     -16.420  58.115   14.480  0.00  0.00     0.000 O
BRANCH 19 23
ATOM     20  C1  SGN B   2     -19.100  55.326   15.820  0.00  0.00     0.000 C
ATOM     21  C2  SGN B   2     -18.480  56.277   16.820  0.00  0.00     0.000 C
ATOM     22  C3  SGN B   2     -18.040  57.512   16.120  0.00  0.00     0.000 C
ATOM     23  C4  SGN B   2     -16.970  57.045   15.160  0.00  0.00     0.000 C
ATOM     24  C5  SGN B   2     -17.680  56.188   14.170  0.00  0.00     0.000 C
ATOM     25  O5  SGN B   2     -18.150  55.052   14.800  0.00  0.00     0.000 O
ATOM     26   O  SGN B   2     -17.510  58.400   17.040  0.00  0.00     0.000 O
ATOM     28  HD  SGN B   2     -17.010  58.900   17.540  0.00  0.00     0.000 HD
BRANCH 21 30
ATOM     28   N  SGN B   2     -19.420  56.541   17.870  0.00  0.00     0.000 N
ATOM     30  HD  SGN B   2     -18.920  57.041   18.370  0.00  0.00     0.000 HD
ATOM     30 @NS  SGN B   2     -19.510  55.449   19.070  0.00  0.00     0.000 S
ATOM     31   O  SGN B   2     -18.480  54.480   18.900  0.00  0.00     0.000 OA
ATOM     32   O  SGN B   2     -19.310  56.216   20.230  0.00  0.00     0.000 OA
ATOM     33   O  SGN B   2     -20.790  54.856   18.970  0.00  0.00     0.000 OA
ENDBRANCH 21 30
BRANCH 24 34
ATOM     34   C  SGN B   2     -16.860  55.732   13.020  0.00  0.00     0.000 C
ATOM     35   O  SGN B   2     -15.760  55.066   13.530  0.00  0.00     0.000 O
ATOM     36  @S  SGN B   2     -14.790  54.264   12.670  0.00  0.00     0.000 S
ATOM     37   O  SGN B   2     -13.760  55.218   12.310  0.00  0.00     0.000 OA
ATOM     38   O  SGN B   2     -14.310  53.176   13.490  0.00  0.00     0.000 OA
ATOM     39   O  SGN B   2     -15.580  53.795   11.540  0.00  0.00     0.000 OA
ENDBRANCH 24 34
BRANCH 20 40
ATOM     40  O4  IDS B   3     -20.270  55.869   15.290  0.00  0.00     0.000 O
BRANCH 40 44
ATOM     41  C1  IDS B   3     -23.590  56.093   14.180  0.00  0.00     0.000 C
ATOM     42  C2  IDS B   3     -23.250  55.332   15.460  0.00  0.00     0.000 C
ATOM     43  C3  IDS B   3     -22.060  54.358   15.360  0.00  0.00     0.000 C
ATOM     44  C4  IDS B   3     -20.950  54.943   14.510  0.00  0.00     0.000 C
ATOM     45  C5  IDS B   3     -21.490  55.619   13.240  0.00  0.00     0.000 C
ATOM     46  O5  IDS B   3     -22.410  56.595   13.570  0.00  0.00     0.000 O
ATOM     47   O  IDS B   3     -22.490  53.154   14.760  0.00  0.00     0.000 O
ATOM     49  HD  IDS B   3     -21.990  53.654   15.260  0.00  0.00     0.000 HD
BRANCH 42 49
ATOM     49   O  IDS B   3     -22.940  56.260   16.460  0.00  0.00     0.000 O
ATOM     50   O  IDS B   3     -25.220  56.763   16.770  0.00  0.00     0.000 OA
ATOM     51   O  IDS B   3     -23.800  56.642   18.660  0.00  0.00     0.000 OA
ATOM     52   O  IDS B   3     -23.560  58.397   17.100  0.00  0.00     0.000 OA
ATOM     53  @S  IDS B   3     -23.940  57.059   17.300  0.00  0.00     0.000 S
ENDBRANCH 42 49
BRANCH 45 54
ATOM     54 @CA  IDS B   3     -20.430  56.205   12.310  0.00  0.00     0.000 C
ATOM     55   O  IDS B   3     -20.180  57.380   12.300  0.00  0.00     0.000 OA
ATOM     56   O  IDS B   3     -19.800  55.514   11.580  0.00  0.00     0.000 OA
ENDBRANCH 45 54
BRANCH 41 57
ATOM     57  O4  SGN B   4     -24.300  55.264   13.320  0.00  0.00     0.000 O
BRANCH 57 61
ATOM     58  C1  SGN B   4     -27.030  55.610   10.250  0.00  0.00     0.000 C
ATOM     59  C2  SGN B   4     -25.570  55.584    9.830  0.00  0.00     0.000 C
ATOM     60  C3  SGN B   4     -24.710  55.068   10.980  0.00  0.00     0.000 C
ATOM     61  C4  SGN B   4     -24.930  55.898   12.250  0.00  0.00     0.000 C
ATOM     62  C5  SGN B   4     -26.430  55.936   12.530  0.00  0.00     0.000 C
ATOM     63  O5  SGN B   4     -27.150  56.416   11.410  0.00  0.00     0.000 O
ATOM     64   O  SGN B   4     -23.350  55.165   10.610  0.00  0.00     0.000 O
ATOM     66  HD  SGN B   4     -22.850  55.665   11.110  0.00  0.00     0.000 HD
BRANCH 59 68
ATOM     66   N  SGN B   4     -25.410  54.745    8.660  0.00  0.00     0.000 N
ATOM     68  HD  SGN B   4     -24.910  55.245    9.160  0.00  0.00     0.000 HD
ATOM     68 @NS  SGN B   4     -25.950  55.261    7.200  0.00  0.00     0.000 S
ATOM     69   O  SGN B   4     -27.180  55.969    7.400  0.00  0.00     0.000 OA
ATOM     70   O  SGN B   4     -24.930  56.125    6.680  0.00  0.00     0.000 OA
ATOM     71   O  SGN B   4     -26.120  54.060    6.440  0.00  0.00     0.000 OA
ENDBRANCH 59 68
BRANCH 62 72
ATOM     72   C  SGN B   4     -26.790  56.839   13.700  0.00  0.00     0.000 C
ATOM     73   O  SGN B   4     -26.160  58.058   13.440  0.00  0.00     0.000 O
ATOM     74  @S  SGN B   4     -26.640  59.464   13.840  0.00  0.00     0.000 S
ATOM     75   O  SGN B   4     -26.770  59.481   15.250  0.00  0.00     0.000 OA
ATOM     76   O  SGN B   4     -25.600  60.334   13.380  0.00  0.00     0.000 OA
ATOM     77   O  SGN B   4     -27.900  59.641   13.200  0.00  0.00     0.000 OA
ENDBRANCH 62 72
BRANCH 58 78
ATOM     78  O4  IDS B   5     -27.500  54.294   10.460  0.00  0.00     0.000 O
BRANCH 78 82
ATOM     79  C1  IDS B   5     -29.180  51.323   11.050  0.00  0.00     0.000 C
ATOM     80  C2  IDS B   5     -28.860  51.716    9.640  0.00  0.00     0.000 C
ATOM     81  C3  IDS B   5     -29.270  53.144    9.290  0.00  0.00     0.000 C
ATOM     82  C4  IDS B   5     -28.900  54.140   10.370  0.00  0.00     0.000 C
ATOM     83  C5  IDS B   5     -29.410  53.605   11.670  0.00  0.00     0.000 C
ATOM     84  O5  IDS B   5     -28.800  52.357   11.940  0.00  0.00     0.000 O
ATOM     85   O  IDS B   5     -30.670  53.167    9.150  0.00  0.00     0.000 O
ATOM     87  HD  IDS B   5     -30.170  53.667    9.650  0.00  0.00     0.000 HD
BRANCH 80 87
ATOM     87   O  IDS B   5     -27.500  51.637    9.470  0.00  0.00     0.000 O
ATOM     88  @S  IDS B   5     -26.740  50.669    8.560  0.00  0.00     0.000 S
ATOM     89   O  IDS B   5     -27.330  50.827    7.280  0.00  0.00     0.000 OA
ATOM     90   O  IDS B   5     -25.380  51.074    8.630  0.00  0.00     0.000 OA
ATOM     91   O  IDS B   5     -26.940  49.374    9.110  0.00  0.00     0.000 OA
ENDBRANCH 80 87
BRANCH 83 92
ATOM     92 @CA  IDS B   5     -29.280  54.585   12.830  0.00  0.00     0.000 C
ATOM     93   O  IDS B   5     -28.700  54.264   13.870  0.00  0.00     0.000 OA
ATOM     94   O  IDS B   5     -29.760  55.722   12.750  0.00  0.00     0.000 OA
ENDBRANCH 83 92
BRANCH 79 95
ATOM     95  O4  SGN B   6     -30.530  51.013   11.150  0.00  0.00     0.000 O
BRANCH 95 99
ATOM     96  C1  SGN B   6     -32.950  48.997   13.850  0.00  0.00     0.000 C
ATOM     97  C2  SGN B   6     -32.230  50.227   14.390  0.00  0.00     0.000 C
ATOM     98  C3  SGN B   6     -31.880  51.094   13.180  0.00  0.00     0.000 C
ATOM     99  C4  SGN B   6     -30.880  50.280   12.310  0.00  0.00     0.000 C
ATOM    100  C5  SGN B   6     -31.620  48.981   11.880  0.00  0.00     0.000 C
ATOM    101  O5  SGN B   6     -32.090  48.252   13.010  0.00  0.00     0.000 O
BRANCH 97 104
ATOM    102   N  SGN B   6     -33.060  50.920   15.380  0.00  0.00     0.000 N
ATOM    104  HD  SGN B   6     -32.560  51.420   15.880  0.00  0.00     0.000 HD
ATOM    104 @NS  SGN B   6     -32.810  50.559   16.980  0.00  0.00     0.000 S
ATOM    105   O  SGN B   6     -31.730  49.599   17.050  0.00  0.00     0.000 OA
ATOM    106   O  SGN B   6     -32.480  51.801   17.640  0.00  0.00     0.000 OA
ATOM    107   O  SGN B   6     -34.050  49.991   17.460  0.00  0.00     0.000 OA
ENDBRANCH 97 104
BRANCH 100 108
ATOM    108   C  SGN B   6     -30.810  47.992   11.050  0.00  0.00     0.000 C
ATOM    109   O  SGN B   6     -29.740  47.503   11.820  0.00  0.00     0.000 O
ATOM    110  @S  SGN B   6     -28.660  46.467   11.340  0.00  0.00     0.000 S
ATOM    111   O  SGN B   6     -28.340  46.829    9.980  0.00  0.00     0.000 OA
ATOM    112   O  SGN B   6     -27.520  46.620   12.230  0.00  0.00     0.000 OA
ATOM    113   O  SGN B   6     -29.290  45.170   11.440  0.00  0.00     0.000 OA
ENDBRANCH 100 108
ENDBRANCH 95 99
ENDBRANCH 79 95
ENDBRANCH 78 82
ENDBRANCH 58 78
ENDBRANCH 57 61
ENDBRANCH 41 57
ENDBRANCH 40 44
ENDBRANCH 20 40
ENDBRANCH 19 23
ENDBRANCH 1 19
TORSDOF 22