MODEL 1
REMARK VINA RESULT:      -9.6      0.000      0.000
FFDIST PL LJ 2322 74 36 -1
ROOT
ATOM      1  C1  IDS F   1     -10.184  47.490 171.6880  0.00  0.00     0.000 C
ATOM      2  C2  IDS F   1      -8.902  47.677 172.5160  0.00  0.00     0.000 C
ATOM      3  C3  IDS F   1      -7.630  47.175 171.7900  0.00  0.00     0.000 C
ATOM      4  C4  IDS F   1      -7.623  47.455 170.2690  0.00  0.00     0.000 C
ATOM      5  C5  IDS F   1      -9.025  47.254 169.6840  0.00  0.00     0.000 C
ATOM      6  O5  IDS F   1      -9.956  47.995 170.3990  0.00  0.00     0.000 O
ATOM      7   S  IDS F   1      -7.786  49.694 173.9250  0.00  0.00     0.000 S
ATOM      8   O  IDS F   1      -6.507  49.073 173.7580  0.00  0.00     0.000 OA
ATOM      9   O  IDS F   1      -7.712  51.105 173.6790  0.00  0.00     0.000 OA
ATOM     10   O  IDS F   1      -8.421  49.367 175.1800  0.00  0.00     0.000 OA
ATOM     11   O  IDS F   1      -8.704  49.047 172.8010  0.00  0.00     0.000 O
ATOM     12   O  IDS F   1      -7.513  45.768 171.9900  0.00  0.00     0.000 O
ATOM     14  HD  IDS F   1      -7.184  45.180 171.4470  0.00  0.00     0.000 HD
ATOM     14   O  IDS F   1      -7.222  48.791 170.0900  0.00  0.00     0.000 O
ATOM     16  HD  IDS F   1      -6.893  48.203 169.5470  0.00  0.00     0.000 HD
ATOM     16   O  IDS F   1     -10.184  48.119 167.7930  0.00  0.00     0.000 OA
ATOM     17   O  IDS F   1      -8.352  47.194 167.3850  0.00  0.00     0.000 OA
ATOM     18   C  IDS F   1      -9.188  47.539 168.2050  0.00  0.00     0.000 C
ENDROOT
BRANCH 1 19
ATOM     19  O4  SGN F   2     -11.205  48.230 172.2650  0.00  0.00     0.000 O
BRANCH 19 23
ATOM     20  C1  SGN F   2     -14.634  47.819 174.6040  0.00  0.00     0.000 C
ATOM     21  C2  SGN F   2     -13.315  47.648 175.3420  0.00  0.00     0.000 C
ATOM     22  C3  SGN F   2     -12.170  48.337 174.5860  0.00  0.00     0.000 C
ATOM     23  C4  SGN F   2     -12.155  47.695 173.1620  0.00  0.00     0.000 C
ATOM     24  C5  SGN F   2     -13.495  47.965 172.5620  0.00  0.00     0.000 C
ATOM     25  O5  SGN F   2     -14.492  47.332 173.2980  0.00  0.00     0.000 O
ATOM     26   N  SGN F   2     -13.496  48.071 176.7510  0.00  0.00     0.000 N
ATOM     28  HD  SGN F   2     -13.048  48.556 177.3120  0.00  0.00     0.000 HD
ATOM     28   S  SGN F   2     -14.163  46.961 177.8150  0.00  0.00     0.000 S
ATOM     29   O  SGN F   2     -15.358  46.432 177.1970  0.00  0.00     0.000 OA
ATOM     30   O  SGN F   2     -13.139  45.955 177.9860  0.00  0.00     0.000 OA
ATOM     31   O  SGN F   2     -14.414  47.654 179.0260  0.00  0.00     0.000 OA
ATOM     32   O  SGN F   2     -10.954  48.066 175.2720  0.00  0.00     0.000 O
ATOM     34  HD  SGN F   2     -10.506  48.551 175.8320  0.00  0.00     0.000 HD
ATOM     34   C  SGN F   2     -13.610  47.452 171.1660  0.00  0.00     0.000 C
ATOM     35   O  SGN F   2     -13.281  46.107 171.2440  0.00  0.00     0.000 O
ATOM     36   S  SGN F   2     -13.411  45.063 170.1400  0.00  0.00     0.000 S
ATOM     37   O  SGN F   2     -12.094  44.490 170.0180  0.00  0.00     0.000 OA
ATOM     38   O  SGN F   2     -14.421  44.149 170.6290  0.00  0.00     0.000 OA
ATOM     39   O  SGN F   2     -13.835  45.765 168.9360  0.00  0.00     0.000 OA
BRANCH 20 40
ATOM     40  O4  IDS F   3     -15.044  49.159 174.5830  0.00  0.00     0.000 O
BRANCH 40 44
ATOM     41  C1  IDS F   3     -16.750  52.197 174.8120  0.00  0.00     0.000 C
ATOM     42  C2  IDS F   3     -16.732  51.252 175.9870  0.00  0.00     0.000 C
ATOM     43  C3  IDS F   3     -17.127  49.779 175.5890  0.00  0.00     0.000 C
ATOM     44  C4  IDS F   3     -16.429  49.334 174.3170  0.00  0.00     0.000 C
ATOM     45  C5  IDS F   3     -16.624  50.401 173.2410  0.00  0.00     0.000 C
ATOM     46  O5  IDS F   3     -16.084  51.628 173.6750  0.00  0.00     0.000 O
ATOM     47   O  IDS F   3     -15.330  50.506 178.8080  0.00  0.00     0.000 OA
ATOM     48   O  IDS F   3     -13.685  52.026 178.0420  0.00  0.00     0.000 OA
ATOM     49   O  IDS F   3     -15.979  52.708 178.3230  0.00  0.00     0.000 OA
ATOM     50   O  IDS F   3     -15.426  51.279 176.5740  0.00  0.00     0.000 O
ATOM     51   S  IDS F   3     -15.076  51.658 178.0200  0.00  0.00     0.000 S
ATOM     52   O  IDS F   3     -18.527  49.710 175.3420  0.00  0.00     0.000 O
ATOM     54  HD  IDS F   3     -18.053  50.214 175.8610  0.00  0.00     0.000 HD
ATOM     54   C  IDS F   3     -16.083  50.034 171.8540  0.00  0.00     0.000 C
ATOM     55   O  IDS F   3     -14.989  50.442 171.4710  0.00  0.00     0.000 OA
ATOM     56   O  IDS F   3     -16.727  49.309 171.0850  0.00  0.00     0.000 OA
BRANCH 41 57
ATOM     57  O4  SGN F   4     -18.076  52.542 174.5350  0.00  0.00     0.000 O
BRANCH 57 61
ATOM     58  C1  SGN F   4     -19.965  55.914 173.1890  0.00  0.00     0.000 C
ATOM     59  C2  SGN F   4     -19.587  54.876 172.1210  0.00  0.00     0.000 C
ATOM     60  C3  SGN F   4     -19.272  53.527 172.7450  0.00  0.00     0.000 C
ATOM     61  C4  SGN F   4     -18.218  53.732 173.8310  0.00  0.00     0.000 C
ATOM     62  C5  SGN F   4     -18.673  54.832 174.8100  0.00  0.00     0.000 C
ATOM     63  O5  SGN F   4     -18.935  56.023 174.1320  0.00  0.00     0.000 O
ATOM     64   N  SGN F   4     -20.630  54.766 171.1190  0.00  0.00     0.000 N
ATOM     66  HD  SGN F   4     -20.127  55.307 171.5720  0.00  0.00     0.000 HD
ATOM     66   S  SGN F   4     -20.582  55.806 169.8640  0.00  0.00     0.000 S
ATOM     67   O  SGN F   4     -20.883  57.114 170.4150  0.00  0.00     0.000 OA
ATOM     68   O  SGN F   4     -19.244  55.753 169.2780  0.00  0.00     0.000 OA
ATOM     69   O  SGN F   4     -21.626  55.319 168.9910  0.00  0.00     0.000 OA
ATOM     70   O  SGN F   4     -18.725  52.660 171.7610  0.00  0.00     0.000 O
ATOM     72  HD  SGN F   4     -18.223  53.201 172.2140  0.00  0.00     0.000 HD
ATOM     72   C  SGN F   4     -17.648  55.203 175.8500  0.00  0.00     0.000 C
ATOM     73   O  SGN F   4     -16.502  55.657 175.1670  0.00  0.00     0.000 O
ATOM     74   S  SGN F   4     -15.493  56.713 175.7030  0.00  0.00     0.000 S
ATOM     75   O  SGN F   4     -15.404  56.574 177.1190  0.00  0.00     0.000 OA
ATOM     76   O  SGN F   4     -14.211  56.455 175.0490  0.00  0.00     0.000 OA
ATOM     77   O  SGN F   4     -16.091  57.946 175.3680  0.00  0.00     0.000 OA
BRANCH 58 78
ATOM     78  O4  IDS F   5     -21.188  55.579 173.8000  0.00  0.00     0.000 O
BRANCH 78 82
ATOM     79  C1  IDS F   5     -24.232  55.474 175.4960  0.00  0.00     0.000 C
ATOM     80  C2  IDS F   5     -24.167  55.297 173.9850  0.00  0.00     0.000 C
ATOM     81  C3  IDS F   5     -23.383  56.425 173.3110  0.00  0.00     0.000 C
ATOM     82  C4  IDS F   5     -22.039  56.666 174.0300  0.00  0.00     0.000 C
ATOM     83  C5  IDS F   5     -22.276  56.816 175.5340  0.00  0.00     0.000 C
ATOM     84  O5  IDS F   5     -22.957  55.688 176.0430  0.00  0.00     0.000 O
ATOM     85   O  IDS F   5     -25.123  56.524 175.7740  0.00  0.00     0.000 OA
ATOM     86   O  IDS F   5     -23.496  54.098 173.7150  0.00  0.00     0.000 O
ATOM     87   S  IDS F   5     -23.494  53.276 172.3850  0.00  0.00     0.000 S
ATOM     88   O  IDS F   5     -23.655  54.211 171.3030  0.00  0.00     0.000 OA
ATOM     89   O  IDS F   5     -22.219  52.598 172.3330  0.00  0.00     0.000 OA
ATOM     90   O  IDS F   5     -24.621  52.388 172.4980  0.00  0.00     0.000 OA
ATOM     91   O  IDS F   5     -24.159  57.604 173.3830  0.00  0.00     0.000 O
ATOM     93  HD  IDS F   5     -23.764  58.023 174.0290  0.00  0.00     0.000 HD
ATOM     93   O  IDS F   5     -20.606  56.306 177.1440  0.00  0.00     0.000 OA
ATOM     94   O  IDS F   5     -20.386  58.123 176.1710  0.00  0.00     0.000 OA
ATOM     95   C  IDS F   5     -21.017  57.096 176.3330  0.00  0.00     0.000 C
ENDBRANCH 78 82
ENDBRANCH 58 78
ENDBRANCH 57 61
ENDBRANCH 41 57
ENDBRANCH 40 44
ENDBRANCH 20 40
ENDBRANCH 19 23
ENDBRANCH 1 19
TORSDOF 8
ENDMDL
MODEL 2
REMARK VINA RESULT:      -9.4      1.138      2.116
FFDIST PL LJ 2322 74 36 -1
ROOT
ATOM      1  C1  IDS F   1      -9.987  47.430 172.2000  0.00  0.00     0.000 C
ATOM      2  C2  IDS F   1      -9.479  47.822 170.8030  0.00  0.00     0.000 C
ATOM      3  C3  IDS F   1      -8.309  46.937 170.3090  0.00  0.00     0.000 C
ATOM      4  C4  IDS F   1      -8.442  45.447 170.6990  0.00  0.00     0.000 C
ATOM      5  C5  IDS F   1      -9.019  45.315 172.1130  0.00  0.00     0.000 C
ATOM      6  O5  IDS F   1     -10.197  46.044 172.2210  0.00  0.00     0.000 O
ATOM      7   S  IDS F   1     -10.616  48.350 168.4090  0.00  0.00     0.000 S
ATOM      8   O  IDS F   1      -9.378  48.014 167.7730  0.00  0.00     0.000 OA
ATOM      9   O  IDS F   1     -11.728  47.754 167.7270  0.00  0.00     0.000 OA
ATOM     10   O  IDS F   1     -10.777  49.768 168.6310  0.00  0.00     0.000 OA
ATOM     11   O  IDS F   1     -10.521  47.700 169.8560  0.00  0.00     0.000 O
ATOM     12   O  IDS F   1      -7.092  47.439 170.8550  0.00  0.00     0.000 O
ATOM     14  HD  IDS F   1      -6.387  46.991 171.0840  0.00  0.00     0.000 HD
ATOM     14   O  IDS F   1      -9.314  44.846 169.7740  0.00  0.00     0.000 O
ATOM     16  HD  IDS F   1      -8.609  44.398 170.0030  0.00  0.00     0.000 HD
ATOM     16   O  IDS F   1     -10.263  43.640 173.2590  0.00  0.00     0.000 OA
ATOM     17   O  IDS F   1      -8.451  43.009 172.4250  0.00  0.00     0.000 OA
ATOM     18   C  IDS F   1      -9.254  43.907 172.6200  0.00  0.00     0.000 C
ENDROOT
BRANCH 1 19
ATOM     19  O4  SGN F   2     -11.205  48.053 172.4280  0.00  0.00     0.000 O
BRANCH 19 23
ATOM     20  C1  SGN F   2     -14.716  47.747 174.6570  0.00  0.00     0.000 C
ATOM     21  C2  SGN F   2     -13.427  47.576 175.4440  0.00  0.00     0.000 C
ATOM     22  C3  SGN F   2     -12.247  48.231 174.7110  0.00  0.00     0.000 C
ATOM     23  C4  SGN F   2     -12.192  47.554 173.3050  0.00  0.00     0.000 C
ATOM     24  C5  SGN F   2     -13.507  47.827 172.6530  0.00  0.00     0.000 C
ATOM     25  O5  SGN F   2     -14.538  47.226 173.3690  0.00  0.00     0.000 O
ATOM     26   N  SGN F   2     -13.649  48.037 176.8360  0.00  0.00     0.000 N
ATOM     28  HD  SGN F   2     -13.213  48.530 177.3990  0.00  0.00     0.000 HD
ATOM     28   S  SGN F   2     -14.368  46.963 177.9030  0.00  0.00     0.000 S
ATOM     29   O  SGN F   2     -15.549  46.435 177.2570  0.00  0.00     0.000 OA
ATOM     30   O  SGN F   2     -13.365  45.948 178.1330  0.00  0.00     0.000 OA
ATOM     31   O  SGN F   2     -14.650  47.689 179.0870  0.00  0.00     0.000 OA
ATOM     32   O  SGN F   2     -11.058  47.961 175.4450  0.00  0.00     0.000 O
ATOM     34  HD  SGN F   2     -10.623  48.453 176.0080  0.00  0.00     0.000 HD
ATOM     34   C  SGN F   2     -13.581  47.281 171.2660  0.00  0.00     0.000 C
ATOM     35   O  SGN F   2     -13.275  45.933 171.3890  0.00  0.00     0.000 O
ATOM     36   S  SGN F   2     -13.382  44.864 170.3070  0.00  0.00     0.000 S
ATOM     37   O  SGN F   2     -12.071  44.270 170.2440  0.00  0.00     0.000 OA
ATOM     38   O  SGN F   2     -14.421  43.976 170.7830  0.00  0.00     0.000 OA
ATOM     39   O  SGN F   2     -13.755  45.541 169.0720  0.00  0.00     0.000 OA
BRANCH 20 40
ATOM     40  O4  IDS F   3     -15.106  49.092 174.5890  0.00  0.00     0.000 O
BRANCH 40 44
ATOM     41  C1  IDS F   3     -16.766  52.159 174.7570  0.00  0.00     0.000 C
ATOM     42  C2  IDS F   3     -16.740  51.249 175.9590  0.00  0.00     0.000 C
ATOM     43  C3  IDS F   3     -17.162  49.770 175.6120  0.00  0.00     0.000 C
ATOM     44  C4  IDS F   3     -16.494  49.278 174.3430  0.00  0.00     0.000 C
ATOM     45  C5  IDS F   3     -16.693  50.315 173.2380  0.00  0.00     0.000 C
ATOM     46  O5  IDS F   3     -16.129  51.547 173.6260  0.00  0.00     0.000 O
ATOM     47   O  IDS F   3     -15.298  50.568 178.7760  0.00  0.00     0.000 OA
ATOM     48   O  IDS F   3     -13.647  52.041 177.9360  0.00  0.00     0.000 OA
ATOM     49   O  IDS F   3     -15.925  52.764 178.2360  0.00  0.00     0.000 OA
ATOM     50   O  IDS F   3     -15.424  51.275 176.5220  0.00  0.00     0.000 O
ATOM     51   S  IDS F   3     -15.042  51.693 177.9500  0.00  0.00     0.000 S
ATOM     52   O  IDS F   3     -18.568  49.715 175.3920  0.00  0.00     0.000 O
ATOM     54  HD  IDS F   3     -18.077  50.227 175.8880  0.00  0.00     0.000 HD
ATOM     54   C  IDS F   3     -16.182  49.899 171.8540  0.00  0.00     0.000 C
ATOM     55   O  IDS F   3     -15.090  50.279 171.4400  0.00  0.00     0.000 OA
ATOM     56   O  IDS F   3     -16.849  49.160 171.1190  0.00  0.00     0.000 OA
BRANCH 41 57
ATOM     57  O4  SGN F   4     -18.092  52.514 174.4920  0.00  0.00     0.000 O
BRANCH 57 61
ATOM     58  C1  SGN F   4     -19.972  55.904 173.1800  0.00  0.00     0.000 C
ATOM     59  C2  SGN F   4     -19.605  54.871 172.1030  0.00  0.00     0.000 C
ATOM     60  C3  SGN F   4     -19.293  53.517 172.7150  0.00  0.00     0.000 C
ATOM     61  C4  SGN F   4     -18.233  53.710 173.7970  0.00  0.00     0.000 C
ATOM     62  C5  SGN F   4     -18.677  54.806 174.7860  0.00  0.00     0.000 C
ATOM     63  O5  SGN F   4     -18.937  56.002 174.1170  0.00  0.00     0.000 O
ATOM     64   N  SGN F   4     -20.654  54.774 171.1060  0.00  0.00     0.000 N
ATOM     66  HD  SGN F   4     -20.146  55.309 171.5600  0.00  0.00     0.000 HD
ATOM     66   S  SGN F   4     -20.608  55.822 169.8570  0.00  0.00     0.000 S
ATOM     67   O  SGN F   4     -20.899  57.128 170.4180  0.00  0.00     0.000 OA
ATOM     68   O  SGN F   4     -19.274  55.766 169.2630  0.00  0.00     0.000 OA
ATOM     69   O  SGN F   4     -21.659  55.346 168.9870  0.00  0.00     0.000 OA
ATOM     70   O  SGN F   4     -18.756  52.654 171.7230  0.00  0.00     0.000 O
ATOM     72  HD  SGN F   4     -18.249  53.190 172.1770  0.00  0.00     0.000 HD
ATOM     72   C  SGN F   4     -17.644  55.164 175.8220  0.00  0.00     0.000 C
ATOM     73   O  SGN F   4     -16.500  55.617 175.1360  0.00  0.00     0.000 O
ATOM     74   S  SGN F   4     -15.482  56.665 175.6740  0.00  0.00     0.000 S
ATOM     75   O  SGN F   4     -15.387  56.515 177.0880  0.00  0.00     0.000 OA
ATOM     76   O  SGN F   4     -14.206  56.405 175.0110  0.00  0.00     0.000 OA
ATOM     77   O  SGN F   4     -16.077  57.902 175.3510  0.00  0.00     0.000 OA
BRANCH 58 78
ATOM     78  O4  IDS F   5     -21.194  55.571 173.7950  0.00  0.00     0.000 O
BRANCH 78 82
ATOM     79  C1  IDS F   5     -24.238  55.466 175.4890  0.00  0.00     0.000 C
ATOM     80  C2  IDS F   5     -24.174  55.304 173.9770  0.00  0.00     0.000 C
ATOM     81  C3  IDS F   5     -23.384  56.435 173.3150  0.00  0.00     0.000 C
ATOM     82  C4  IDS F   5     -22.038  56.660 174.0360  0.00  0.00     0.000 C
ATOM     83  C5  IDS F   5     -22.274  56.797 175.5420  0.00  0.00     0.000 C
ATOM     84  O5  IDS F   5     -22.961  55.668 176.0390  0.00  0.00     0.000 O
ATOM     85   O  IDS F   5     -25.123  56.519 175.7790  0.00  0.00     0.000 OA
ATOM     86   O  IDS F   5     -23.510  54.105 173.6950  0.00  0.00     0.000 O
ATOM     87   S  IDS F   5     -23.513  53.296 172.3560  0.00  0.00     0.000 S
ATOM     88   O  IDS F   5     -23.669  54.244 171.2840  0.00  0.00     0.000 OA
ATOM     89   O  IDS F   5     -22.242  52.611 172.2980  0.00  0.00     0.000 OA
ATOM     90   O  IDS F   5     -24.645  52.414 172.4610  0.00  0.00     0.000 OA
ATOM     91   O  IDS F   5     -24.153  57.618 173.3990  0.00  0.00     0.000 O
ATOM     93  HD  IDS F   5     -23.755  58.028 174.0500  0.00  0.00     0.000 HD
ATOM     93   O  IDS F   5     -20.607  56.261 177.1470  0.00  0.00     0.000 OA
ATOM     94   O  IDS F   5     -20.377  58.086 176.1920  0.00  0.00     0.000 OA
ATOM     95   C  IDS F   5     -21.014  57.061 176.3440  0.00  0.00     0.000 C
ENDBRANCH 78 82
ENDBRANCH 58 78
ENDBRANCH 57 61
ENDBRANCH 41 57
ENDBRANCH 40 44
ENDBRANCH 20 40
ENDBRANCH 19 23
ENDBRANCH 1 19
TORSDOF 8
ENDMDL
MODEL 3
REMARK VINA RESULT:      -8.8      3.506     12.005
FFDIST PL LJ 2322 74 36 -1
ROOT
ATOM      1  C1  IDS F   1     -22.555  48.646 173.1340  0.00  0.00     0.000 C
ATOM      2  C2  IDS F   1     -22.319  47.517 172.1170  0.00  0.00     0.000 C
ATOM      3  C3  IDS F   1     -22.244  46.115 172.7710  0.00  0.00     0.000 C
ATOM      4  C4  IDS F   1     -23.234  45.915 173.9420  0.00  0.00     0.000 C
ATOM      5  C5  IDS F   1     -23.338  47.196 174.7770  0.00  0.00     0.000 C
ATOM      6  O5  IDS F   1     -23.628  48.281 173.9590  0.00  0.00     0.000 O
ATOM      7   S  IDS F   1     -23.392  46.793 169.7460  0.00  0.00     0.000 S
ATOM      8   O  IDS F   1     -22.939  45.455 169.9750  0.00  0.00     0.000 OA
ATOM      9   O  IDS F   1     -24.743  46.808 169.2640  0.00  0.00     0.000 OA
ATOM     10   O  IDS F   1     -22.488  47.570 168.9300  0.00  0.00     0.000 OA
ATOM     11   O  IDS F   1     -23.374  47.482 171.1770  0.00  0.00     0.000 O
ATOM     12   O  IDS F   1     -20.921  45.906 173.2580  0.00  0.00     0.000 O
ATOM     14  HD  IDS F   1     -20.676  45.453 173.9540  0.00  0.00     0.000 HD
ATOM     14   O  IDS F   1     -24.489  45.611 173.3840  0.00  0.00     0.000 O
ATOM     16  HD  IDS F   1     -24.244  45.157 174.0800  0.00  0.00     0.000 HD
ATOM     16   O  IDS F   1     -25.013  48.144 176.1780  0.00  0.00     0.000 OA
ATOM     17   O  IDS F   1     -24.417  46.199 176.6690  0.00  0.00     0.000 OA
ATOM     18   C  IDS F   1     -24.311  47.170 175.9380  0.00  0.00     0.000 C
ENDROOT
BRANCH 1 19
ATOM     19  O4  SGN F   2     -22.911  49.800 172.4510  0.00  0.00     0.000 O
BRANCH 19 23
ATOM     20  C1  SGN F   2     -19.816  52.568 172.8420  0.00  0.00     0.000 C
ATOM     21  C2  SGN F   2     -20.943  52.701 173.8550  0.00  0.00     0.000 C
ATOM     22  C3  SGN F   2     -21.709  51.378 173.9980  0.00  0.00     0.000 C
ATOM     23  C4  SGN F   2     -22.221  51.026 172.5650  0.00  0.00     0.000 C
ATOM     24  C5  SGN F   2     -21.010  50.907 171.7010  0.00  0.00     0.000 C
ATOM     25  O5  SGN F   2     -20.347  52.128 171.6230  0.00  0.00     0.000 O
ATOM     26   N  SGN F   2     -20.394  53.261 175.1130  0.00  0.00     0.000 N
ATOM     28  HD  SGN F   2     -20.476  53.079 175.9560  0.00  0.00     0.000 HD
ATOM     28   S  SGN F   2     -20.202  54.923 175.2030  0.00  0.00     0.000 S
ATOM     29   O  SGN F   2     -19.500  55.345 174.0120  0.00  0.00     0.000 OA
ATOM     30   O  SGN F   2     -21.549  55.445 175.2640  0.00  0.00     0.000 OA
ATOM     31   O  SGN F   2     -19.490  55.189 176.4000  0.00  0.00     0.000 OA
ATOM     32   O  SGN F   2     -22.802  51.588 174.8840  0.00  0.00     0.000 O
ATOM     34  HD  SGN F   2     -22.884  51.407 175.7270  0.00  0.00     0.000 HD
ATOM     34   C  SGN F   2     -21.343  50.517 170.3000  0.00  0.00     0.000 C
ATOM     35   O  SGN F   2     -22.261  51.463 169.8670  0.00  0.00     0.000 O
ATOM     36   S  SGN F   2     -22.795  51.645 168.4510  0.00  0.00     0.000 S
ATOM     37   O  SGN F   2     -24.228  51.578 168.5870  0.00  0.00     0.000 OA
ATOM     38   O  SGN F   2     -22.290  52.936 168.0400  0.00  0.00     0.000 OA
ATOM     39   O  SGN F   2     -22.254  50.556 167.6470  0.00  0.00     0.000 OA
BRANCH 20 40
ATOM     40  O4  IDS F   3     -18.822  51.685 173.2880  0.00  0.00     0.000 O
BRANCH 40 44
ATOM     41  C1  IDS F   3     -15.620  50.531 174.0660  0.00  0.00     0.000 C
ATOM     42  C2  IDS F   3     -15.879  52.011 173.9470  0.00  0.00     0.000 C
ATOM     43  C3  IDS F   3     -16.635  52.392 172.6170  0.00  0.00     0.000 C
ATOM     44  C4  IDS F   3     -17.792  51.450 172.3380  0.00  0.00     0.000 C
ATOM     45  C5  IDS F   3     -17.299  50.008 172.4470  0.00  0.00     0.000 C
ATOM     46  O5  IDS F   3     -16.792  49.768 173.7410  0.00  0.00     0.000 O
ATOM     47   O  IDS F   3     -16.529  54.756 175.5350  0.00  0.00     0.000 OA
ATOM     48   O  IDS F   3     -16.988  53.261 177.3110  0.00  0.00     0.000 OA
ATOM     49   O  IDS F   3     -14.823  53.315 176.2550  0.00  0.00     0.000 OA
ATOM     50   O  IDS F   3     -16.632  52.436 175.0890  0.00  0.00     0.000 O
ATOM     51   S  IDS F   3     -16.222  53.500 176.1170  0.00  0.00     0.000 S
ATOM     52   O  IDS F   3     -15.740  52.291 171.5140  0.00  0.00     0.000 O
ATOM     54  HD  IDS F   3     -15.614  52.476 172.3500  0.00  0.00     0.000 HD
ATOM     54   C  IDS F   3     -18.328  48.938 172.0650  0.00  0.00     0.000 C
ATOM     55   O  IDS F   3     -18.975  48.342 172.9230  0.00  0.00     0.000 OA
ATOM     56   O  IDS F   3     -18.544  48.650 170.8800  0.00  0.00     0.000 OA
BRANCH 41 57
ATOM     57  O4  SGN F   4     -14.529  50.200 173.2570  0.00  0.00     0.000 O
BRANCH 57 61
ATOM     58  C1  SGN F   4     -11.564  47.388 173.4770  0.00  0.00     0.000 C
ATOM     59  C2  SGN F   4     -12.751  47.052 172.5610  0.00  0.00     0.000 C
ATOM     60  C3  SGN F   4     -13.571  48.289 172.2390  0.00  0.00     0.000 C
ATOM     61  C4  SGN F   4     -13.955  48.970 173.5510  0.00  0.00     0.000 C
ATOM     62  C5  SGN F   4     -12.699  49.204 174.4140  0.00  0.00     0.000 C
ATOM     63  O5  SGN F   4     -12.025  48.005 174.6460  0.00  0.00     0.000 O
ATOM     64   N  SGN F   4     -12.298  46.388 171.3540  0.00  0.00     0.000 N
ATOM     66  HD  SGN F   4     -12.251  46.411 172.2190  0.00  0.00     0.000 HD
ATOM     66   S  SGN F   4     -12.116  44.769 171.4080  0.00  0.00     0.000 S
ATOM     67   O  SGN F   4     -10.988  44.520 172.2850  0.00  0.00     0.000 OA
ATOM     68   O  SGN F   4     -13.352  44.187 171.9280  0.00  0.00     0.000 OA
ATOM     69   O  SGN F   4     -11.836  44.421 170.0330  0.00  0.00     0.000 OA
ATOM     70   O  SGN F   4     -14.768  47.911 171.5740  0.00  0.00     0.000 O
ATOM     72  HD  SGN F   4     -14.721  47.934 172.4380  0.00  0.00     0.000 HD
ATOM     72   C  SGN F   4     -12.982  49.756 175.7870  0.00  0.00     0.000 C
ATOM     73   O  SGN F   4     -13.812  48.830 176.4490  0.00  0.00     0.000 O
ATOM     74   S  SGN F   4     -13.844  48.585 177.9850  0.00  0.00     0.000 S
ATOM     75   O  SGN F   4     -13.578  49.821 178.6440  0.00  0.00     0.000 OA
ATOM     76   O  SGN F   4     -15.172  48.068 178.3110  0.00  0.00     0.000 OA
ATOM     77   O  SGN F   4     -12.786  47.677 178.1990  0.00  0.00     0.000 OA
BRANCH 58 78
ATOM     78  O4  IDS F   5     -10.627  48.195 172.8040  0.00  0.00     0.000 O
BRANCH 78 82
ATOM     79  C1  IDS F   5      -7.834  49.895 171.5960  0.00  0.00     0.000 C
ATOM     80  C2  IDS F   5      -8.446  48.737 170.8200  0.00  0.00     0.000 C
ATOM     81  C3  IDS F   5      -8.617  47.491 171.6920  0.00  0.00     0.000 C
ATOM     82  C4  IDS F   5      -9.292  47.849 173.0340  0.00  0.00     0.000 C
ATOM     83  C5  IDS F   5      -8.564  49.029 173.6810  0.00  0.00     0.000 C
ATOM     84  O5  IDS F   5      -8.523  50.130 172.7970  0.00  0.00     0.000 O
ATOM     85   O  IDS F   5      -6.472  49.612 171.8000  0.00  0.00     0.000 OA
ATOM     86   O  IDS F   5      -9.720  49.127 170.3880  0.00  0.00     0.000 O
ATOM     87   S  IDS F   5     -10.593  48.482 169.2620  0.00  0.00     0.000 S
ATOM     88   O  IDS F   5     -10.272  47.080 169.2230  0.00  0.00     0.000 OA
ATOM     89   O  IDS F   5     -11.969  48.716 169.6370  0.00  0.00     0.000 OA
ATOM     90   O  IDS F   5     -10.195  49.156 168.0550  0.00  0.00     0.000 OA
ATOM     91   O  IDS F   5      -7.334  46.957 171.9520  0.00  0.00     0.000 O
ATOM     93  HD  IDS F   5      -7.203  47.229 172.7630  0.00  0.00     0.000 HD
ATOM     93   O  IDS F   5      -9.639  50.515 175.1900  0.00  0.00     0.000 OA
ATOM     94   O  IDS F   5      -9.080  48.683 175.9830  0.00  0.00     0.000 OA
ATOM     95   C  IDS F   5      -9.126  49.437 175.0290  0.00  0.00     0.000 C
ENDBRANCH 78 82
ENDBRANCH 58 78
ENDBRANCH 57 61
ENDBRANCH 41 57
ENDBRANCH 40 44
ENDBRANCH 20 40
ENDBRANCH 19 23
ENDBRANCH 1 19
TORSDOF 8
ENDMDL
MODEL 4
REMARK VINA RESULT:      -8.5      3.351      5.148
FFDIST PL LJ 2322 74 36 -1
ROOT
ATOM      1  C1  IDS F   1     -16.832  43.729 172.8220  0.00  0.00     0.000 C
ATOM      2  C2  IDS F   1     -15.446  43.253 172.3550  0.00  0.00     0.000 C
ATOM      3  C3  IDS F   1     -15.460  41.821 171.7670  0.00  0.00     0.000 C
ATOM      4  C4  IDS F   1     -16.717  41.500 170.9260  0.00  0.00     0.000 C
ATOM      5  C5  IDS F   1     -17.961  42.127 171.5660  0.00  0.00     0.000 C
ATOM      6  O5  IDS F   1     -17.753  43.482 171.7940  0.00  0.00     0.000 O
ATOM      7   S  IDS F   1     -13.453  44.283 170.8490  0.00  0.00     0.000 S
ATOM      8   O  IDS F   1     -13.002  42.952 170.5770  0.00  0.00     0.000 OA
ATOM      9   O  IDS F   1     -13.471  45.078 169.6550  0.00  0.00     0.000 OA
ATOM     10   O  IDS F   1     -12.750  44.912 171.9430  0.00  0.00     0.000 OA
ATOM     11   O  IDS F   1     -14.952  44.112 171.3470  0.00  0.00     0.000 O
ATOM     12   O  IDS F   1     -15.383  40.885 172.8390  0.00  0.00     0.000 O
ATOM     14  HD  IDS F   1     -15.738  40.096 172.8820  0.00  0.00     0.000 HD
ATOM     14   O  IDS F   1     -16.517  42.046 169.6460  0.00  0.00     0.000 O
ATOM     16  HD  IDS F   1     -16.872  41.257 169.6890  0.00  0.00     0.000 HD
ATOM     16   O  IDS F   1     -20.071  42.860 170.7440  0.00  0.00     0.000 OA
ATOM     17   O  IDS F   1     -19.572  40.875 170.3110  0.00  0.00     0.000 OA
ATOM     18   C  IDS F   1     -19.270  41.939 170.8270  0.00  0.00     0.000 C
ENDROOT
BRANCH 1 19
ATOM     19  O4  SGN F   2     -16.789  45.098 173.0400  0.00  0.00     0.000 O
BRANCH 19 23
ATOM     20  C1  SGN F   2     -16.649  47.940 176.0880  0.00  0.00     0.000 C
ATOM     21  C2  SGN F   2     -15.385  47.115 175.9070  0.00  0.00     0.000 C
ATOM     22  C3  SGN F   2     -15.312  46.528 174.4900  0.00  0.00     0.000 C
ATOM     23  C4  SGN F   2     -16.616  45.687 174.3110  0.00  0.00     0.000 C
ATOM     24  C5  SGN F   2     -17.757  46.633 174.4920  0.00  0.00     0.000 C
ATOM     25  O5  SGN F   2     -17.761  47.145 175.7860  0.00  0.00     0.000 O
ATOM     26   N  SGN F   2     -14.217  47.927 176.3230  0.00  0.00     0.000 N
ATOM     28  HD  SGN F   2     -13.430  48.087 175.9980  0.00  0.00     0.000 HD
ATOM     28   S  SGN F   2     -13.862  47.995 177.9590  0.00  0.00     0.000 S
ATOM     29   O  SGN F   2     -15.086  48.318 178.6560  0.00  0.00     0.000 OA
ATOM     30   O  SGN F   2     -13.375  46.673 178.2840  0.00  0.00     0.000 OA
ATOM     31   O  SGN F   2     -12.848  48.973 178.1190  0.00  0.00     0.000 OA
ATOM     32   O  SGN F   2     -14.162  45.694 174.4090  0.00  0.00     0.000 O
ATOM     34  HD  SGN F   2     -13.375  45.854 174.0850  0.00  0.00     0.000 HD
ATOM     34   C  SGN F   2     -19.081  45.975 174.2940  0.00  0.00     0.000 C
ATOM     35   O  SGN F   2     -19.088  44.899 175.1690  0.00  0.00     0.000 O
ATOM     36   S  SGN F   2     -20.269  43.995 175.5070  0.00  0.00     0.000 S
ATOM     37   O  SGN F   2     -19.802  42.660 175.2330  0.00  0.00     0.000 OA
ATOM     38   O  SGN F   2     -20.538  44.263 176.9030  0.00  0.00     0.000 OA
ATOM     39   O  SGN F   2     -21.373  44.395 174.6430  0.00  0.00     0.000 OA
BRANCH 20 40
ATOM     40  O4  IDS F   3     -16.636  49.088 175.2820  0.00  0.00     0.000 O
BRANCH 40 44
ATOM     41  C1  IDS F   3     -17.107  52.514 174.8020  0.00  0.00     0.000 C
ATOM     42  C2  IDS F   3     -17.128  51.938 176.1960  0.00  0.00     0.000 C
ATOM     43  C3  IDS F   3     -18.081  50.688 176.3230  0.00  0.00     0.000 C
ATOM     44  C4  IDS F   3     -17.902  49.724 175.1660  0.00  0.00     0.000 C
ATOM     45  C5  IDS F   3     -17.976  50.501 173.8520  0.00  0.00     0.000 C
ATOM     46  O5  IDS F   3     -16.966  51.483 173.8140  0.00  0.00     0.000 O
ATOM     47   O  IDS F   3     -15.428  51.379 178.8930  0.00  0.00     0.000 OA
ATOM     48   O  IDS F   3     -13.601  51.910 177.4860  0.00  0.00     0.000 OA
ATOM     49   O  IDS F   3     -15.391  53.481 177.8520  0.00  0.00     0.000 OA
ATOM     50   O  IDS F   3     -15.790  51.586 176.5650  0.00  0.00     0.000 O
ATOM     51   S  IDS F   3     -14.996  52.122 177.7650  0.00  0.00     0.000 S
ATOM     52   O  IDS F   3     -19.438  51.119 176.3000  0.00  0.00     0.000 O
ATOM     54  HD  IDS F   3     -18.711  51.502 176.5720  0.00  0.00     0.000 HD
ATOM     54   C  IDS F   3     -17.940  49.641 172.5840  0.00  0.00     0.000 C
ATOM     55   O  IDS F   3     -16.899  49.486 171.9500  0.00  0.00     0.000 OA
ATOM     56   O  IDS F   3     -18.956  49.068 172.1670  0.00  0.00     0.000 OA
BRANCH 41 57
ATOM     57  O4  SGN F   4     -18.264  53.276 174.6140  0.00  0.00     0.000 O
BRANCH 57 61
ATOM     58  C1  SGN F   4     -19.176  56.785 172.7160  0.00  0.00     0.000 C
ATOM     59  C2  SGN F   4     -19.302  55.505 171.8740  0.00  0.00     0.000 C
ATOM     60  C3  SGN F   4     -19.338  54.265 172.7510  0.00  0.00     0.000 C
ATOM     61  C4  SGN F   4     -18.127  54.297 173.6810  0.00  0.00     0.000 C
ATOM     62  C5  SGN F   4     -18.067  55.644 174.4280  0.00  0.00     0.000 C
ATOM     63  O5  SGN F   4     -18.038  56.709 173.5280  0.00  0.00     0.000 O
ATOM     64   N  SGN F   4     -20.460  55.574 171.0050  0.00  0.00     0.000 N
ATOM     66  HD  SGN F   4     -19.753  55.986 171.2880  0.00  0.00     0.000 HD
ATOM     66   S  SGN F   4     -20.272  56.291 169.5530  0.00  0.00     0.000 S
ATOM     67   O  SGN F   4     -20.065  57.701 169.8260  0.00  0.00     0.000 OA
ATOM     68   O  SGN F   4     -19.119  55.686 168.8900  0.00  0.00     0.000 OA
ATOM     69   O  SGN F   4     -21.532  56.035 168.8920  0.00  0.00     0.000 OA
ATOM     70   O  SGN F   4     -19.240  53.103 171.9410  0.00  0.00     0.000 O
ATOM     72  HD  SGN F   4     -18.533  53.515 172.2250  0.00  0.00     0.000 HD
ATOM     72   C  SGN F   4     -16.837  55.828 175.2790  0.00  0.00     0.000 C
ATOM     73   O  SGN F   4     -15.719  55.739 174.4260  0.00  0.00     0.000 O
ATOM     74   S  SGN F   4     -14.363  56.473 174.6380  0.00  0.00     0.000 S
ATOM     75   O  SGN F   4     -14.118  56.570 176.0390  0.00  0.00     0.000 OA
ATOM     76   O  SGN F   4     -13.336  55.684 173.9590  0.00  0.00     0.000 OA
ATOM     77   O  SGN F   4     -14.587  57.753 174.0900  0.00  0.00     0.000 OA
BRANCH 58 78
ATOM     78  O4  IDS F   5     -20.340  56.998 173.4780  0.00  0.00     0.000 O
BRANCH 78 82
ATOM     79  C1  IDS F   5     -22.975  58.229 175.3980  0.00  0.00     0.000 C
ATOM     80  C2  IDS F   5     -23.192  57.788 173.9580  0.00  0.00     0.000 C
ATOM     81  C3  IDS F   5     -22.195  58.448 173.0020  0.00  0.00     0.000 C
ATOM     82  C4  IDS F   5     -20.754  58.332 173.5440  0.00  0.00     0.000 C
ATOM     83  C5  IDS F   5     -20.709  58.807 174.9980  0.00  0.00     0.000 C
ATOM     84  O5  IDS F   5     -21.633  58.084 175.7850  0.00  0.00     0.000 O
ATOM     85   O  IDS F   5     -23.432  59.553 175.5230  0.00  0.00     0.000 OA
ATOM     86   O  IDS F   5     -22.986  56.405 173.8900  0.00  0.00     0.000 O
ATOM     87   S  IDS F   5     -23.443  55.419 172.7650  0.00  0.00     0.000 S
ATOM     88   O  IDS F   5     -23.452  56.156 171.5290  0.00  0.00     0.000 OA
ATOM     89   O  IDS F   5     -22.474  54.347 172.7530  0.00  0.00     0.000 OA
ATOM     90   O  IDS F   5     -24.765  55.004 173.1510  0.00  0.00     0.000 OA
ATOM     91   O  IDS F   5     -22.533  59.816 172.8890  0.00  0.00     0.000 O
ATOM     93  HD  IDS F   5     -21.935  60.177 173.4000  0.00  0.00     0.000 HD
ATOM     93   O  IDS F   5     -19.074  58.036 176.5400  0.00  0.00     0.000 OA
ATOM     94   O  IDS F   5     -18.428  59.475 175.1940  0.00  0.00     0.000 OA
ATOM     95   C  IDS F   5     -19.324  58.769 175.6180  0.00  0.00     0.000 C
ENDBRANCH 78 82
ENDBRANCH 58 78
ENDBRANCH 57 61
ENDBRANCH 41 57
ENDBRANCH 40 44
ENDBRANCH 20 40
ENDBRANCH 19 23
ENDBRANCH 1 19
TORSDOF 8
ENDMDL
MODEL 5
REMARK VINA RESULT:      -8.0      4.289     11.866
FFDIST PL LJ 2322 74 36 -1
ROOT
ATOM      1  C1  IDS F   1     -21.583  45.963 172.2150  0.00  0.00     0.000 C
ATOM      2  C2  IDS F   1     -21.718  44.898 171.1140  0.00  0.00     0.000 C
ATOM      3  C3  IDS F   1     -21.121  43.527 171.5160  0.00  0.00     0.000 C
ATOM      4  C4  IDS F   1     -21.357  43.150 172.9980  0.00  0.00     0.000 C
ATOM      5  C5  IDS F   1     -21.222  44.389 173.8900  0.00  0.00     0.000 C
ATOM      6  O5  IDS F   1     -22.037  45.411 173.4220  0.00  0.00     0.000 O
ATOM      7   S  IDS F   1     -23.705  44.011 169.5120  0.00  0.00     0.000 S
ATOM      8   O  IDS F   1     -23.004  42.771 169.3680  0.00  0.00     0.000 OA
ATOM      9   O  IDS F   1     -25.101  43.792 169.7540  0.00  0.00     0.000 OA
ATOM     10   O  IDS F   1     -23.452  44.939 168.4340  0.00  0.00     0.000 OA
ATOM     11   O  IDS F   1     -23.081  44.684 170.8090  0.00  0.00     0.000 O
ATOM     12   O  IDS F   1     -19.716  43.550 171.2750  0.00  0.00     0.000 O
ATOM     14  HD  IDS F   1     -19.094  43.142 171.7190  0.00  0.00     0.000 HD
ATOM     14   O  IDS F   1     -22.661  42.635 173.0970  0.00  0.00     0.000 O
ATOM     16  HD  IDS F   1     -22.039  42.227 173.5410  0.00  0.00     0.000 HD
ATOM     16   O  IDS F   1     -22.100  45.021 176.0110  0.00  0.00     0.000 OA
ATOM     17   O  IDS F   1     -21.057  43.208 175.9680  0.00  0.00     0.000 OA
ATOM     18   C  IDS F   1     -21.474  44.187 175.3710  0.00  0.00     0.000 C
ENDROOT
BRANCH 1 19
ATOM     19  O4  SGN F   2     -22.399  47.040 171.9010  0.00  0.00     0.000 O
BRANCH 19 23
ATOM     20  C1  SGN F   2     -20.019  50.430 172.3910  0.00  0.00     0.000 C
ATOM     21  C2  SGN F   2     -21.180  50.301 173.3640  0.00  0.00     0.000 C
ATOM     22  C3  SGN F   2     -21.634  48.839 173.4850  0.00  0.00     0.000 C
ATOM     23  C4  SGN F   2     -22.006  48.389 172.0360  0.00  0.00     0.000 C
ATOM     24  C5  SGN F   2     -20.771  48.550 171.2140  0.00  0.00     0.000 C
ATOM     25  O5  SGN F   2     -20.397  49.889 171.1550  0.00  0.00     0.000 O
ATOM     26   N  SGN F   2     -20.812  50.963 174.6390  0.00  0.00     0.000 N
ATOM     28  HD  SGN F   2     -20.879  50.763 175.4790  0.00  0.00     0.000 HD
ATOM     28   S  SGN F   2     -21.002  52.625 174.7330  0.00  0.00     0.000 S
ATOM     29   O  SGN F   2     -20.374  53.200 173.5650  0.00  0.00     0.000 OA
ATOM     30   O  SGN F   2     -22.432  52.831 174.7480  0.00  0.00     0.000 OA
ATOM     31   O  SGN F   2     -20.407  53.037 175.9520  0.00  0.00     0.000 OA
ATOM     32   O  SGN F   2     -22.775  48.794 174.3330  0.00  0.00     0.000 O
ATOM     34  HD  SGN F   2     -22.842  48.594 175.1730  0.00  0.00     0.000 HD
ATOM     34   C  SGN F   2     -20.961  48.103 169.8030  0.00  0.00     0.000 C
ATOM     35   O  SGN F   2     -22.053  48.821 169.3380  0.00  0.00     0.000 O
ATOM     36   S  SGN F   2     -22.567  48.886 167.9040  0.00  0.00     0.000 S
ATOM     37   O  SGN F   2     -23.953  48.500 167.9910  0.00  0.00     0.000 OA
ATOM     38   O  SGN F   2     -22.351  50.261 167.5070  0.00  0.00     0.000 OA
ATOM     39   O  SGN F   2     -21.769  47.951 167.1200  0.00  0.00     0.000 OA
BRANCH 20 40
ATOM     40  O4  IDS F   3     -18.868  49.790 172.8710  0.00  0.00     0.000 O
BRANCH 40 44
ATOM     41  C1  IDS F   3     -15.503  49.476 173.7500  0.00  0.00     0.000 C
ATOM     42  C2  IDS F   3     -16.110  50.844 173.5680  0.00  0.00     0.000 C
ATOM     43  C3  IDS F   3     -16.900  50.984 172.2110  0.00  0.00     0.000 C
ATOM     44  C4  IDS F   3     -17.786  49.781 171.9490  0.00  0.00     0.000 C
ATOM     45  C5  IDS F   3     -16.962  48.506 172.1240  0.00  0.00     0.000 C
ATOM     46  O5  IDS F   3     -16.446  48.441 173.4340  0.00  0.00     0.000 O
ATOM     47   O  IDS F   3     -17.446  53.402 175.0350  0.00  0.00     0.000 OA
ATOM     48   O  IDS F   3     -17.576  51.901 176.8600  0.00  0.00     0.000 OA
ATOM     49   O  IDS F   3     -15.462  52.443 175.8400  0.00  0.00     0.000 OA
ATOM     50   O  IDS F   3     -16.973  51.111 174.6790  0.00  0.00     0.000 O
ATOM     51   S  IDS F   3     -16.859  52.278 175.6710  0.00  0.00     0.000 S
ATOM     52   O  IDS F   3     -15.978  51.066 171.1280  0.00  0.00     0.000 O
ATOM     54  HD  IDS F   3     -15.923  51.305 171.9590  0.00  0.00     0.000 HD
ATOM     54   C  IDS F   3     -17.690  47.205 171.7670  0.00  0.00     0.000 C
ATOM     55   O  IDS F   3     -18.196  46.500 172.6360  0.00  0.00     0.000 OA
ATOM     56   O  IDS F   3     -17.799  46.833 170.5910  0.00  0.00     0.000 OA
BRANCH 41 57
ATOM     57  O4  SGN F   4     -14.343  49.393 172.9730  0.00  0.00     0.000 O
BRANCH 57 61
ATOM     58  C1  SGN F   4     -10.787  47.399 173.3270  0.00  0.00     0.000 C
ATOM     59  C2  SGN F   4     -11.856  46.730 172.4480  0.00  0.00     0.000 C
ATOM     60  C3  SGN F   4     -12.950  47.710 172.0610  0.00  0.00     0.000 C
ATOM     61  C4  SGN F   4     -13.489  48.358 173.3350  0.00  0.00     0.000 C
ATOM     62  C5  SGN F   4     -12.330  48.942 174.1650  0.00  0.00     0.000 C
ATOM     63  O5  SGN F   4     -11.387  47.958 174.4620  0.00  0.00     0.000 O
ATOM     64   N  SGN F   4     -11.252  46.121 171.2790  0.00  0.00     0.000 N
ATOM     66  HD  SGN F   4     -11.214  46.209 172.1400  0.00  0.00     0.000 HD
ATOM     66   S  SGN F   4     -10.685  44.600 171.4290  0.00  0.00     0.000 S
ATOM     67   O  SGN F   4      -9.532  44.686 172.3050  0.00  0.00     0.000 OA
ATOM     68   O  SGN F   4     -11.745  43.771 171.9980  0.00  0.00     0.000 OA
ATOM     69   O  SGN F   4     -10.326  44.246 170.0740  0.00  0.00     0.000 OA
ATOM     70   O  SGN F   4     -14.018  47.014 171.4360  0.00  0.00     0.000 O
ATOM     72  HD  SGN F   4     -13.980  47.102 172.2970  0.00  0.00     0.000 HD
ATOM     72   C  SGN F   4     -12.741  49.493 175.5060  0.00  0.00     0.000 C
ATOM     73   O  SGN F   4     -13.325  48.437 176.2330  0.00  0.00     0.000 O
ATOM     74   S  SGN F   4     -13.300  48.288 177.7820  0.00  0.00     0.000 S
ATOM     75   O  SGN F   4     -13.343  49.590 178.3610  0.00  0.00     0.000 OA
ATOM     76   O  SGN F   4     -14.465  47.487 178.1560  0.00  0.00     0.000 OA
ATOM     77   O  SGN F   4     -12.055  47.678 178.0380  0.00  0.00     0.000 OA
BRANCH 58 78
ATOM     78  O4  IDS F   5     -10.071  48.365 172.5950  0.00  0.00     0.000 O
BRANCH 78 82
ATOM     79  C1  IDS F   5      -7.753  50.570 171.2120  0.00  0.00     0.000 C
ATOM     80  C2  IDS F   5      -8.145  49.288 170.4910  0.00  0.00     0.000 C
ATOM     81  C3  IDS F   5      -8.012  48.060 171.3940  0.00  0.00     0.000 C
ATOM     82  C4  IDS F   5      -8.684  48.309 172.7620  0.00  0.00     0.000 C
ATOM     83  C5  IDS F   5      -8.189  49.633 173.3480  0.00  0.00     0.000 C
ATOM     84  O5  IDS F   5      -8.419  50.692 172.4430  0.00  0.00     0.000 O
ATOM     85   O  IDS F   5      -6.354  50.581 171.3520  0.00  0.00     0.000 OA
ATOM     86   O  IDS F   5      -9.491  49.393 170.1180  0.00  0.00     0.000 O
ATOM     87   S  IDS F   5     -10.261  48.549 169.0510  0.00  0.00     0.000 S
ATOM     88   O  IDS F   5      -9.658  47.242 169.0220  0.00  0.00     0.000 OA
ATOM     89   O  IDS F   5     -11.637  48.504 169.4910  0.00  0.00     0.000 OA
ATOM     90   O  IDS F   5     -10.069  49.255 167.8120  0.00  0.00     0.000 OA
ATOM     91   O  IDS F   5      -6.636  47.811 171.5980  0.00  0.00     0.000 O
ATOM     93  HD  IDS F   5      -6.527  48.128 172.3960  0.00  0.00     0.000 HD
ATOM     93   O  IDS F   5      -9.479  50.909 174.8820  0.00  0.00     0.000 OA
ATOM     94   O  IDS F   5      -8.514  49.256 175.6800  0.00  0.00     0.000 OA
ATOM     95   C  IDS F   5      -8.761  49.956 174.7160  0.00  0.00     0.000 C
ENDBRANCH 78 82
ENDBRANCH 58 78
ENDBRANCH 57 61
ENDBRANCH 41 57
ENDBRANCH 40 44
ENDBRANCH 20 40
ENDBRANCH 19 23
ENDBRANCH 1 19
TORSDOF 8
ENDMDL
MODEL 6
REMARK VINA RESULT:      -7.8      2.879      6.228
FFDIST PL LJ 2322 74 36 -1
ROOT
ATOM      1  C1  IDS F   1      -9.334  44.896 174.1510  0.00  0.00     0.000 C
ATOM      2  C2  IDS F   1      -9.681  43.661 174.9980  0.00  0.00     0.000 C
ATOM      3  C3  IDS F   1      -8.433  42.887 175.4870  0.00  0.00     0.000 C
ATOM      4  C4  IDS F   1      -7.247  43.797 175.8850  0.00  0.00     0.000 C
ATOM      5  C5  IDS F   1      -7.140  44.985 174.9240  0.00  0.00     0.000 C
ATOM      6  O5  IDS F   1      -8.361  45.642 174.8330  0.00  0.00     0.000 O
ATOM      7   S  IDS F   1     -11.312  43.147 177.0900  0.00  0.00     0.000 S
ATOM      8   O  IDS F   1     -10.490  42.024 177.4260  0.00  0.00     0.000 OA
ATOM      9   O  IDS F   1     -11.642  43.915 178.2560  0.00  0.00     0.000 OA
ATOM     10   O  IDS F   1     -12.465  42.793 176.2960  0.00  0.00     0.000 OA
ATOM     11   O  IDS F   1     -10.406  44.050 176.1480  0.00  0.00     0.000 O
ATOM     12   O  IDS F   1      -8.000  42.011 174.4490  0.00  0.00     0.000 O
ATOM     14  HD  IDS F   1      -7.191  41.767 174.2630  0.00  0.00     0.000 HD
ATOM     14   O  IDS F   1      -7.493  44.263 177.1890  0.00  0.00     0.000 O
ATOM     16  HD  IDS F   1      -6.684  44.019 177.0020  0.00  0.00     0.000 HD
ATOM     16   O  IDS F   1      -6.267  47.194 175.0900  0.00  0.00     0.000 OA
ATOM     17   O  IDS F   1      -4.931  45.655 175.5640  0.00  0.00     0.000 OA
ATOM     18   C  IDS F   1      -6.050  45.996 175.2140  0.00  0.00     0.000 C
ENDROOT
BRANCH 1 19
ATOM     19  O4  SGN F   2     -10.467  45.686 174.0190  0.00  0.00     0.000 O
BRANCH 19 23
ATOM     20  C1  SGN F   2     -13.632  46.523 171.4360  0.00  0.00     0.000 C
ATOM     21  C2  SGN F   2     -13.589  45.102 171.9770  0.00  0.00     0.000 C
ATOM     22  C3  SGN F   2     -12.783  45.037 173.2830  0.00  0.00     0.000 C
ATOM     23  C4  SGN F   2     -11.366  45.597 172.9350  0.00  0.00     0.000 C
ATOM     24  C5  SGN F   2     -11.571  46.992 172.4460  0.00  0.00     0.000 C
ATOM     25  O5  SGN F   2     -12.321  46.990 171.2740  0.00  0.00     0.000 O
ATOM     26   N  SGN F   2     -14.973  44.576 172.0540  0.00  0.00     0.000 N
ATOM     28  HD  SGN F   2     -15.434  44.137 172.6410  0.00  0.00     0.000 HD
ATOM     28   S  SGN F   2     -15.645  43.953 170.6510  0.00  0.00     0.000 S
ATOM     29   O  SGN F   2     -15.438  44.926 169.6020  0.00  0.00     0.000 OA
ATOM     30   O  SGN F   2     -14.923  42.724 170.4120  0.00  0.00     0.000 OA
ATOM     31   O  SGN F   2     -17.013  43.705 170.9270  0.00  0.00     0.000 OA
ATOM     32   O  SGN F   2     -12.700  43.677 173.6900  0.00  0.00     0.000 O
ATOM     34  HD  SGN F   2     -13.160  43.238 174.2770  0.00  0.00     0.000 HD
ATOM     34   C  SGN F   2     -10.287  47.679 172.1240  0.00  0.00     0.000 C
ATOM     35   O  SGN F   2      -9.645  46.846 171.2190  0.00  0.00     0.000 O
ATOM     36   S  SGN F   2      -8.379  47.151 170.4260  0.00  0.00     0.000 S
ATOM     37   O  SGN F   2      -7.478  46.070 170.7400  0.00  0.00     0.000 OA
ATOM     38   O  SGN F   2      -8.818  47.186 169.0490  0.00  0.00     0.000 OA
ATOM     39   O  SGN F   2      -7.889  48.445 170.8850  0.00  0.00     0.000 OA
BRANCH 20 40
ATOM     40  O4  IDS F   3     -14.352  47.377 172.2840  0.00  0.00     0.000 O
BRANCH 40 44
ATOM     41  C1  IDS F   3     -16.794  49.787 172.9300  0.00  0.00     0.000 C
ATOM     42  C2  IDS F   3     -16.760  49.089 171.5940  0.00  0.00     0.000 C
ATOM     43  C3  IDS F   3     -15.326  49.101 170.9380  0.00  0.00     0.000 C
ATOM     44  C4  IDS F   3     -14.244  48.752 171.9420  0.00  0.00     0.000 C
ATOM     45  C5  IDS F   3     -14.424  49.615 173.1910  0.00  0.00     0.000 C
ATOM     46  O5  IDS F   3     -15.694  49.383 173.7590  0.00  0.00     0.000 O
ATOM     47   O  IDS F   3     -17.967  46.685 169.7930  0.00  0.00     0.000 OA
ATOM     48   O  IDS F   3     -18.807  45.953 171.8810  0.00  0.00     0.000 OA
ATOM     49   O  IDS F   3     -19.377  48.121 170.9980  0.00  0.00     0.000 OA
ATOM     50   O  IDS F   3     -17.217  47.743 171.7720  0.00  0.00     0.000 O
ATOM     51   S  IDS F   3     -18.417  47.082 171.0780  0.00  0.00     0.000 S
ATOM     52   O  IDS F   3     -15.036  50.407 170.4500  0.00  0.00     0.000 O
ATOM     54  HD  IDS F   3     -15.780  49.976 170.5500  0.00  0.00     0.000 HD
ATOM     54   C  IDS F   3     -13.325  49.468 174.2490  0.00  0.00     0.000 C
ATOM     55   O  IDS F   3     -13.482  48.748 175.2320  0.00  0.00     0.000 OA
ATOM     56   O  IDS F   3     -12.244  50.060 174.1380  0.00  0.00     0.000 OA
BRANCH 41 57
ATOM     57  O4  SGN F   4     -16.818  51.168 172.7140  0.00  0.00     0.000 O
BRANCH 57 61
ATOM     58  C1  SGN F   4     -18.067  54.356 174.9550  0.00  0.00     0.000 C
ATOM     59  C2  SGN F   4     -16.550  54.112 174.9080  0.00  0.00     0.000 C
ATOM     60  C3  SGN F   4     -16.171  53.190 173.7620  0.00  0.00     0.000 C
ATOM     61  C4  SGN F   4     -17.016  51.921 173.8640  0.00  0.00     0.000 C
ATOM     62  C5  SGN F   4     -18.510  52.285 173.9650  0.00  0.00     0.000 C
ATOM     63  O5  SGN F   4     -18.742  53.133 175.0480  0.00  0.00     0.000 O
ATOM     64   N  SGN F   4     -15.830  55.369 174.8380  0.00  0.00     0.000 N
ATOM     66  HD  SGN F   4     -16.453  54.923 175.2420  0.00  0.00     0.000 HD
ATOM     66   S  SGN F   4     -15.481  56.117 176.2440  0.00  0.00     0.000 S
ATOM     67   O  SGN F   4     -16.750  56.572 176.7820  0.00  0.00     0.000 OA
ATOM     68   O  SGN F   4     -14.827  55.153 177.1250  0.00  0.00     0.000 OA
ATOM     69   O  SGN F   4     -14.630  57.211 175.8340  0.00  0.00     0.000 OA
ATOM     70   O  SGN F   4     -14.805  52.819 173.8770  0.00  0.00     0.000 O
ATOM     72  HD  SGN F   4     -15.428  52.374 174.2810  0.00  0.00     0.000 HD
ATOM     72   C  SGN F   4     -19.422  51.109 174.1980  0.00  0.00     0.000 C
ATOM     73   O  SGN F   4     -19.026  50.504 175.4080  0.00  0.00     0.000 O
ATOM     74   S  SGN F   4     -19.968  49.741 176.3840  0.00  0.00     0.000 S
ATOM     75   O  SGN F   4     -20.977  49.087 175.6180  0.00  0.00     0.000 OA
ATOM     76   O  SGN F   4     -19.141  48.788 177.1230  0.00  0.00     0.000 OA
ATOM     77   O  SGN F   4     -20.536  50.766 177.1680  0.00  0.00     0.000 OA
BRANCH 58 78
ATOM     78  O4  IDS F   5     -18.489  55.093 173.8330  0.00  0.00     0.000 O
BRANCH 78 82
ATOM     79  C1  IDS F   5     -20.160  57.088 171.5130  0.00  0.00     0.000 C
ATOM     80  C2  IDS F   5     -18.774  57.463 172.0180  0.00  0.00     0.000 C
ATOM     81  C3  IDS F   5     -18.705  57.469 173.5470  0.00  0.00     0.000 C
ATOM     82  C4  IDS F   5     -19.320  56.178 174.1300  0.00  0.00     0.000 C
ATOM     83  C5  IDS F   5     -20.703  55.942 173.5190  0.00  0.00     0.000 C
ATOM     84  O5  IDS F   5     -20.621  55.903 172.1090  0.00  0.00     0.000 O
ATOM     85   O  IDS F   5     -21.018  58.177 171.7420  0.00  0.00     0.000 OA
ATOM     86   O  IDS F   5     -17.867  56.499 171.5600  0.00  0.00     0.000 O
ATOM     87   S  IDS F   5     -16.310  56.610 171.4710  0.00  0.00     0.000 S
ATOM     88   O  IDS F   5     -15.881  57.481 172.5330  0.00  0.00     0.000 OA
ATOM     89   O  IDS F   5     -15.802  55.266 171.6290  0.00  0.00     0.000 OA
ATOM     90   O  IDS F   5     -16.054  57.179 170.1740  0.00  0.00     0.000 OA
ATOM     91   O  IDS F   5     -19.442  58.580 174.0160  0.00  0.00     0.000 O
ATOM     93  HD  IDS F   5     -20.173  58.196 174.2770  0.00  0.00     0.000 HD
ATOM     93   O  IDS F   5     -21.664  53.777 173.3400  0.00  0.00     0.000 OA
ATOM     94   O  IDS F   5     -21.744  54.640 175.2230  0.00  0.00     0.000 OA
ATOM     95   C  IDS F   5     -21.414  54.714 174.0550  0.00  0.00     0.000 C
ENDBRANCH 78 82
ENDBRANCH 58 78
ENDBRANCH 57 61
ENDBRANCH 41 57
ENDBRANCH 40 44
ENDBRANCH 20 40
ENDBRANCH 19 23
ENDBRANCH 1 19
TORSDOF 8
ENDMDL
MODEL 7
REMARK VINA RESULT:      -7.5      3.503      5.477
FFDIST PL LJ 2322 74 36 -1
ROOT
ATOM      1  C1  IDS F   1     -16.948  44.049 173.1980  0.00  0.00     0.000 C
ATOM      2  C2  IDS F   1     -15.606  43.785 172.4950  0.00  0.00     0.000 C
ATOM      3  C3  IDS F   1     -15.519  42.377 171.8590  0.00  0.00     0.000 C
ATOM      4  C4  IDS F   1     -16.841  41.894 171.2190  0.00  0.00     0.000 C
ATOM      5  C5  IDS F   1     -18.036  42.325 172.0760  0.00  0.00     0.000 C
ATOM      6  O5  IDS F   1     -17.984  43.691 172.3230  0.00  0.00     0.000 O
ATOM      7   S  IDS F   1     -14.052  45.116 170.7300  0.00  0.00     0.000 S
ATOM      8   O  IDS F   1     -13.472  43.868 170.3350  0.00  0.00     0.000 OA
ATOM      9   O  IDS F   1     -14.377  45.921 169.5890  0.00  0.00     0.000 OA
ATOM     10   O  IDS F   1     -13.272  45.820 171.7210  0.00  0.00     0.000 OA
ATOM     11   O  IDS F   1     -15.410  44.724 171.4560  0.00  0.00     0.000 O
ATOM     12   O  IDS F   1     -15.137  41.442 172.8640  0.00  0.00     0.000 O
ATOM     14  HD  IDS F   1     -15.367  40.610 172.9320  0.00  0.00     0.000 HD
ATOM     14   O  IDS F   1     -16.934  42.486 169.9470  0.00  0.00     0.000 O
ATOM     16  HD  IDS F   1     -17.165  41.654 170.0150  0.00  0.00     0.000 HD
ATOM     16   O  IDS F   1     -20.335  42.763 171.6370  0.00  0.00     0.000 OA
ATOM     17   O  IDS F   1     -19.645  40.878 171.0470  0.00  0.00     0.000 OA
ATOM     18   C  IDS F   1     -19.412  41.964 171.5520  0.00  0.00     0.000 C
ENDROOT
BRANCH 1 19
ATOM     19  O4  SGN F   2     -17.059  45.406 173.4630  0.00  0.00     0.000 O
BRANCH 19 23
ATOM     20  C1  SGN F   2     -16.630  48.217 176.5130  0.00  0.00     0.000 C
ATOM     21  C2  SGN F   2     -15.343  47.548 176.0570  0.00  0.00     0.000 C
ATOM     22  C3  SGN F   2     -15.492  46.987 174.6350  0.00  0.00     0.000 C
ATOM     23  C4  SGN F   2     -16.701  46.000 174.6930  0.00  0.00     0.000 C
ATOM     24  C5  SGN F   2     -17.881  46.802 175.1290  0.00  0.00     0.000 C
ATOM     25  O5  SGN F   2     -17.683  47.299 176.4140  0.00  0.00     0.000 O
ATOM     26   N  SGN F   2     -14.215  48.489 176.2580  0.00  0.00     0.000 N
ATOM     28  HD  SGN F   2     -13.534  48.743 175.7880  0.00  0.00     0.000 HD
ATOM     28   S  SGN F   2     -13.547  48.583 177.7910  0.00  0.00     0.000 S
ATOM     29   O  SGN F   2     -14.635  48.753 178.7290  0.00  0.00     0.000 OA
ATOM     30   O  SGN F   2     -12.858  47.325 177.9690  0.00  0.00     0.000 OA
ATOM     31   O  SGN F   2     -12.641  49.673 177.7780  0.00  0.00     0.000 OA
ATOM     32   O  SGN F   2     -14.295  46.296 174.2990  0.00  0.00     0.000 O
ATOM     34  HD  SGN F   2     -13.613  46.550 173.8300  0.00  0.00     0.000 HD
ATOM     34   C  SGN F   2     -19.135  45.995 175.1770  0.00  0.00     0.000 C
ATOM     35   O  SGN F   2     -18.843  44.918 176.0010  0.00  0.00     0.000 O
ATOM     36   S  SGN F   2     -19.821  43.878 176.5370  0.00  0.00     0.000 S
ATOM     37   O  SGN F   2     -19.270  42.610 176.1320  0.00  0.00     0.000 OA
ATOM     38   O  SGN F   2     -19.831  44.100 177.9660  0.00  0.00     0.000 OA
ATOM     39   O  SGN F   2     -21.115  44.152 175.9240  0.00  0.00     0.000 OA
BRANCH 20 40
ATOM     40  O4  IDS F   3     -16.911  49.365 175.7590  0.00  0.00     0.000 O
BRANCH 40 44
ATOM     41  C1  IDS F   3     -17.606  52.712 175.0450  0.00  0.00     0.000 C
ATOM     42  C2  IDS F   3     -16.931  52.342 176.3410  0.00  0.00     0.000 C
ATOM     43  C3  IDS F   3     -17.679  51.187 177.1100  0.00  0.00     0.000 C
ATOM     44  C4  IDS F   3     -18.079  50.059 176.1780  0.00  0.00     0.000 C
ATOM     45  C5  IDS F   3     -18.802  50.644 174.9650  0.00  0.00     0.000 C
ATOM     46  O5  IDS F   3     -17.955  51.544 174.2870  0.00  0.00     0.000 O
ATOM     47   O  IDS F   3     -14.115  52.064 177.9140  0.00  0.00     0.000 OA
ATOM     48   O  IDS F   3     -13.226  52.272 175.7310  0.00  0.00     0.000 OA
ATOM     49   O  IDS F   3     -14.625  53.990 176.6750  0.00  0.00     0.000 OA
ATOM     50   O  IDS F   3     -15.579  51.961 176.0590  0.00  0.00     0.000 O
ATOM     51   S  IDS F   3     -14.305  52.611 176.6190  0.00  0.00     0.000 S
ATOM     52   O  IDS F   3     -18.878  51.696 177.6860  0.00  0.00     0.000 O
ATOM     54  HD  IDS F   3     -18.116  52.067 177.5050  0.00  0.00     0.000 HD
ATOM     54   C  IDS F   3     -19.382  49.612 173.9920  0.00  0.00     0.000 C
ATOM     55   O  IDS F   3     -18.785  49.302 172.9640  0.00  0.00     0.000 OA
ATOM     56   O  IDS F   3     -20.463  49.052 174.2190  0.00  0.00     0.000 OA
BRANCH 41 57
ATOM     57  O4  SGN F   4     -18.716  53.512 175.3290  0.00  0.00     0.000 O
BRANCH 57 61
ATOM     58  C1  SGN F   4     -20.638  56.658 173.5520  0.00  0.00     0.000 C
ATOM     59  C2  SGN F   4     -21.014  55.257 173.0430  0.00  0.00     0.000 C
ATOM     60  C3  SGN F   4     -20.568  54.176 174.0120  0.00  0.00     0.000 C
ATOM     61  C4  SGN F   4     -19.080  54.369 174.2980  0.00  0.00     0.000 C
ATOM     62  C5  SGN F   4     -18.808  55.819 174.7410  0.00  0.00     0.000 C
ATOM     63  O5  SGN F   4     -19.258  56.725 173.7800  0.00  0.00     0.000 O
ATOM     64   N  SGN F   4     -22.437  55.174 172.7750  0.00  0.00     0.000 N
ATOM     66  HD  SGN F   4     -21.712  55.633 172.6550  0.00  0.00     0.000 HD
ATOM     66   S  SGN F   4     -22.956  55.648 171.3030  0.00  0.00     0.000 S
ATOM     67   O  SGN F   4     -22.763  57.085 171.2530  0.00  0.00     0.000 OA
ATOM     68   O  SGN F   4     -22.161  54.953 170.2930  0.00  0.00     0.000 OA
ATOM     69   O  SGN F   4     -24.353  55.276 171.3100  0.00  0.00     0.000 OA
ATOM     70   O  SGN F   4     -20.739  52.898 173.4160  0.00  0.00     0.000 O
ATOM     72  HD  SGN F   4     -20.014  53.357 173.2970  0.00  0.00     0.000 HD
ATOM     72   C  SGN F   4     -17.350  56.150 174.9260  0.00  0.00     0.000 C
ATOM     73   O  SGN F   4     -16.710  55.934 173.6890  0.00  0.00     0.000 O
ATOM     74   S  SGN F   4     -15.460  56.703 173.1750  0.00  0.00     0.000 S
ATOM     75   O  SGN F   4     -14.639  57.029 174.2940  0.00  0.00     0.000 OA
ATOM     76   O  SGN F   4     -14.771  55.824 172.2320  0.00  0.00     0.000 OA
ATOM     77   O  SGN F   4     -16.000  57.875 172.6060  0.00  0.00     0.000 OA
BRANCH 58 78
ATOM     78  O4  IDS F   5     -21.368  56.981 174.7100  0.00  0.00     0.000 O
BRANCH 78 82
ATOM     79  C1  IDS F   5     -23.040  58.520 177.3540  0.00  0.00     0.000 C
ATOM     80  C2  IDS F   5     -23.781  57.628 176.3670  0.00  0.00     0.000 C
ATOM     81  C3  IDS F   5     -23.516  58.037 174.9170  0.00  0.00     0.000 C
ATOM     82  C4  IDS F   5     -22.005  58.226 174.6660  0.00  0.00     0.000 C
ATOM     83  C5  IDS F   5     -21.412  59.139 175.7420  0.00  0.00     0.000 C
ATOM     84  O5  IDS F   5     -21.677  58.623 177.0300  0.00  0.00     0.000 O
ATOM     85   O  IDS F   5     -23.684  59.769 177.3820  0.00  0.00     0.000 OA
ATOM     86   O  IDS F   5     -23.313  56.318 176.5280  0.00  0.00     0.000 O
ATOM     87   S  IDS F   5     -23.989  54.991 176.0510  0.00  0.00     0.000 S
ATOM     88   O  IDS F   5     -24.733  55.295 174.8580  0.00  0.00     0.000 OA
ATOM     89   O  IDS F   5     -22.912  54.060 175.8000  0.00  0.00     0.000 OA
ATOM     90   O  IDS F   5     -24.850  54.605 177.1370  0.00  0.00     0.000 OA
ATOM     91   O  IDS F   5     -24.178  59.263 174.6770  0.00  0.00     0.000 O
ATOM     93  HD  IDS F   5     -23.514  59.819 174.7160  0.00  0.00     0.000 HD
ATOM     93   O  IDS F   5     -19.125  59.043 176.3750  0.00  0.00     0.000 OA
ATOM     94   O  IDS F   5     -19.522  60.034 174.5980  0.00  0.00     0.000 OA
ATOM     95   C  IDS F   5     -19.932  59.422 175.5660  0.00  0.00     0.000 C
ENDBRANCH 78 82
ENDBRANCH 58 78
ENDBRANCH 57 61
ENDBRANCH 41 57
ENDBRANCH 40 44
ENDBRANCH 20 40
ENDBRANCH 19 23
ENDBRANCH 1 19
TORSDOF 8
ENDMDL
MODEL 8
REMARK VINA RESULT:      -7.5      1.659      2.788
FFDIST PL LJ 2322 74 36 -1
ROOT
ATOM      1  C1  IDS F   1     -10.072  48.623 172.5680  0.00  0.00     0.000 C
ATOM      2  C2  IDS F   1      -9.356  49.151 171.3140  0.00  0.00     0.000 C
ATOM      3  C3  IDS F   1      -7.825  49.285 171.4980  0.00  0.00     0.000 C
ATOM      4  C4  IDS F   1      -7.192  48.149 172.3360  0.00  0.00     0.000 C
ATOM      5  C5  IDS F   1      -8.119  47.762 173.4940  0.00  0.00     0.000 C
ATOM      6  O5  IDS F   1      -9.393  47.482 173.0170  0.00  0.00     0.000 O
ATOM      7   S  IDS F   1      -9.391  48.568 168.6760  0.00  0.00     0.000 S
ATOM      8   O  IDS F   1      -8.081  49.132 168.5570  0.00  0.00     0.000 OA
ATOM      9   O  IDS F   1      -9.483  47.320 167.9750  0.00  0.00     0.000 OA
ATOM     10   O  IDS F   1     -10.445  49.494 168.3330  0.00  0.00     0.000 OA
ATOM     11   O  IDS F   1      -9.570  48.274 170.2270  0.00  0.00     0.000 O
ATOM     12   O  IDS F   1      -7.546  50.527 172.1380  0.00  0.00     0.000 O
ATOM     14  HD  IDS F   1      -6.904  50.708 172.6910  0.00  0.00     0.000 HD
ATOM     14   O  IDS F   1      -7.015  47.045 171.4820  0.00  0.00     0.000 O
ATOM     16  HD  IDS F   1      -6.373  47.226 172.0350  0.00  0.00     0.000 HD
ATOM     16   O  IDS F   1      -8.452  45.783 174.7750  0.00  0.00     0.000 OA
ATOM     17   O  IDS F   1      -6.493  46.517 174.7370  0.00  0.00     0.000 OA
ATOM     18   C  IDS F   1      -7.655  46.624 174.3800  0.00  0.00     0.000 C
ENDROOT
BRANCH 1 19
ATOM     19  O4  SGN F   2     -11.363  48.249 172.2250  0.00  0.00     0.000 O
BRANCH 19 23
ATOM     20  C1  SGN F   2     -14.774  47.796 174.5820  0.00  0.00     0.000 C
ATOM     21  C2  SGN F   2     -13.450  47.687 175.3220  0.00  0.00     0.000 C
ATOM     22  C3  SGN F   2     -12.328  48.390 174.5440  0.00  0.00     0.000 C
ATOM     23  C4  SGN F   2     -12.294  47.709 173.1380  0.00  0.00     0.000 C
ATOM     24  C5  SGN F   2     -13.643  47.920 172.5350  0.00  0.00     0.000 C
ATOM     25  O5  SGN F   2     -14.619  47.277 173.2900  0.00  0.00     0.000 O
ATOM     26   N  SGN F   2     -13.641  48.143 176.7190  0.00  0.00     0.000 N
ATOM     28  HD  SGN F   2     -13.208  48.658 177.2650  0.00  0.00     0.000 HD
ATOM     28   S  SGN F   2     -14.271  47.043 177.8150  0.00  0.00     0.000 S
ATOM     29   O  SGN F   2     -15.450  46.460 177.2160  0.00  0.00     0.000 OA
ATOM     30   O  SGN F   2     -13.216  46.075 178.0120  0.00  0.00     0.000 OA
ATOM     31   O  SGN F   2     -14.543  47.761 179.0070  0.00  0.00     0.000 OA
ATOM     32   O  SGN F   2     -11.102  48.177 175.2350  0.00  0.00     0.000 O
ATOM     34  HD  SGN F   2     -10.669  48.691 175.7800  0.00  0.00     0.000 HD
ATOM     34   C  SGN F   2     -13.744  47.365 171.1540  0.00  0.00     0.000 C
ATOM     35   O  SGN F   2     -13.373  46.033 171.2690  0.00  0.00     0.000 O
ATOM     36   S  SGN F   2     -13.472  44.955 170.1950  0.00  0.00     0.000 S
ATOM     37   O  SGN F   2     -12.138  44.421 170.0850  0.00  0.00     0.000 OA
ATOM     38   O  SGN F   2     -14.452  44.024 170.7110  0.00  0.00     0.000 OA
ATOM     39   O  SGN F   2     -13.920  45.610 168.9720  0.00  0.00     0.000 OA
BRANCH 20 40
ATOM     40  O4  IDS F   3     -15.226  49.122 174.5250  0.00  0.00     0.000 O
BRANCH 40 44
ATOM     41  C1  IDS F   3     -16.910  52.136 175.0450  0.00  0.00     0.000 C
ATOM     42  C2  IDS F   3     -16.548  51.262 176.2200  0.00  0.00     0.000 C
ATOM     43  C3  IDS F   3     -16.984  49.761 176.0190  0.00  0.00     0.000 C
ATOM     44  C4  IDS F   3     -16.637  49.254 174.6320  0.00  0.00     0.000 C
ATOM     45  C5  IDS F   3     -17.147  50.252 173.5930  0.00  0.00     0.000 C
ATOM     46  O5  IDS F   3     -16.553  51.513 173.8020  0.00  0.00     0.000 O
ATOM     47   O  IDS F   3     -14.419  50.711 178.5960  0.00  0.00     0.000 OA
ATOM     48   O  IDS F   3     -13.091  52.213 177.3390  0.00  0.00     0.000 OA
ATOM     49   O  IDS F   3     -15.248  52.867 178.1890  0.00  0.00     0.000 OA
ATOM     50   O  IDS F   3     -15.134  51.348 176.4330  0.00  0.00     0.000 O
ATOM     51   S  IDS F   3     -14.424  51.818 177.7100  0.00  0.00     0.000 S
ATOM     52   O  IDS F   3     -18.397  49.652 176.1600  0.00  0.00     0.000 O
ATOM     54  HD  IDS F   3     -17.818  50.195 176.5070  0.00  0.00     0.000 HD
ATOM     54   C  IDS F   3     -16.983  49.814 172.1340  0.00  0.00     0.000 C
ATOM     55   O  IDS F   3     -16.046  50.218 171.4500  0.00  0.00     0.000 OA
ATOM     56   O  IDS F   3     -17.784  49.032 171.6040  0.00  0.00     0.000 OA
BRANCH 41 57
ATOM     57  O4  SGN F   4     -18.273  52.439 175.1150  0.00  0.00     0.000 O
BRANCH 57 61
ATOM     58  C1  SGN F   4     -20.442  55.289 173.1350  0.00  0.00     0.000 C
ATOM     59  C2  SGN F   4     -20.823  53.827 172.8530  0.00  0.00     0.000 C
ATOM     60  C3  SGN F   4     -20.257  52.892 173.9070  0.00  0.00     0.000 C
ATOM     61  C4  SGN F   4     -18.756  53.145 174.0200  0.00  0.00     0.000 C
ATOM     62  C5  SGN F   4     -18.487  54.646 174.2420  0.00  0.00     0.000 C
ATOM     63  O5  SGN F   4     -19.050  55.409 173.2190  0.00  0.00     0.000 O
ATOM     64   N  SGN F   4     -22.262  53.685 172.7350  0.00  0.00     0.000 N
ATOM     66  HD  SGN F   4     -21.565  54.136 172.4880  0.00  0.00     0.000 HD
ATOM     66   S  SGN F   4     -22.929  53.951 171.2710  0.00  0.00     0.000 S
ATOM     67   O  SGN F   4     -22.783  55.371 171.0160  0.00  0.00     0.000 OA
ATOM     68   O  SGN F   4     -22.211  53.141 170.2880  0.00  0.00     0.000 OA
ATOM     69   O  SGN F   4     -24.308  53.560 171.4600  0.00  0.00     0.000 OA
ATOM     70   O  SGN F   4     -20.446  51.543 173.5020  0.00  0.00     0.000 O
ATOM     72  HD  SGN F   4     -19.749  51.994 173.2550  0.00  0.00     0.000 HD
ATOM     72   C  SGN F   4     -17.028  55.023 174.2420  0.00  0.00     0.000 C
ATOM     73   O  SGN F   4     -16.500  54.655 172.9880  0.00  0.00     0.000 O
ATOM     74   S  SGN F   4     -15.325  55.370 172.2600  0.00  0.00     0.000 S
ATOM     75   O  SGN F   4     -14.414  55.855 173.2430  0.00  0.00     0.000 OA
ATOM     76   O  SGN F   4     -14.702  54.385 171.3780  0.00  0.00     0.000 OA
ATOM     77   O  SGN F   4     -15.951  56.447 171.5980  0.00  0.00     0.000 OA
BRANCH 58 78
ATOM     78  O4  IDS F   5     -21.071  55.751 174.3060  0.00  0.00     0.000 O
BRANCH 78 82
ATOM     79  C1  IDS F   5     -22.540  57.566 176.8940  0.00  0.00     0.000 C
ATOM     80  C2  IDS F   5     -23.372  56.659 175.9990  0.00  0.00     0.000 C
ATOM     81  C3  IDS F   5     -23.141  56.951 174.5150  0.00  0.00     0.000 C
ATOM     82  C4  IDS F   5     -21.632  57.027 174.1990  0.00  0.00     0.000 C
ATOM     83  C5  IDS F   5     -20.943  57.971 175.1860  0.00  0.00     0.000 C
ATOM     84  O5  IDS F   5     -21.187  57.562 176.5160  0.00  0.00     0.000 O
ATOM     85   O  IDS F   5     -23.106  58.853 176.8590  0.00  0.00     0.000 OA
ATOM     86   O  IDS F   5     -22.978  55.336 176.2340  0.00  0.00     0.000 O
ATOM     87   S  IDS F   5     -23.751  54.025 175.8750  0.00  0.00     0.000 S
ATOM     88   O  IDS F   5     -24.523  54.294 174.6910  0.00  0.00     0.000 OA
ATOM     89   O  IDS F   5     -22.744  53.013 175.6510  0.00  0.00     0.000 OA
ATOM     90   O  IDS F   5     -24.591  53.767 177.0150  0.00  0.00     0.000 OA
ATOM     91   O  IDS F   5     -23.736  58.198 174.2150  0.00  0.00     0.000 O
ATOM     93  HD  IDS F   5     -23.040  58.712 174.1910  0.00  0.00     0.000 HD
ATOM     93   O  IDS F   5     -18.642  57.775 175.7430  0.00  0.00     0.000 OA
ATOM     94   O  IDS F   5     -19.049  58.666 173.9160  0.00  0.00     0.000 OA
ATOM     95   C  IDS F   5     -19.457  58.148 174.9380  0.00  0.00     0.000 C
ENDBRANCH 78 82
ENDBRANCH 58 78
ENDBRANCH 57 61
ENDBRANCH 41 57
ENDBRANCH 40 44
ENDBRANCH 20 40
ENDBRANCH 19 23
ENDBRANCH 1 19
TORSDOF 8
ENDMDL
MODEL 9
REMARK VINA RESULT:      -7.4      3.864     10.969
FFDIST PL LJ 2322 74 36 -1
ROOT
ATOM      1  C1  IDS F   1     -15.143  57.842 169.8040  0.00  0.00     0.000 C
ATOM      2  C2  IDS F   1     -13.747  57.511 169.2500  0.00  0.00     0.000 C
ATOM      3  C3  IDS F   1     -13.791  56.664 167.9550  0.00  0.00     0.000 C
ATOM      4  C4  IDS F   1     -14.940  57.047 166.9930  0.00  0.00     0.000 C
ATOM      5  C5  IDS F   1     -16.208  57.385 167.7860  0.00  0.00     0.000 C
ATOM      6  O5  IDS F   1     -15.929  58.341 168.7550  0.00  0.00     0.000 O
ATOM      7   S  IDS F   1     -11.489  58.904 168.7380  0.00  0.00     0.000 S
ATOM      8   O  IDS F   1     -11.110  57.898 167.7930  0.00  0.00     0.000 OA
ATOM      9   O  IDS F   1     -11.278  60.219 168.2080  0.00  0.00     0.000 OA
ATOM     10   O  IDS F   1     -10.898  58.713 170.0420  0.00  0.00     0.000 OA
ATOM     11   O  IDS F   1     -13.052  58.703 168.9440  0.00  0.00     0.000 O
ATOM     12   O  IDS F   1     -13.938  55.291 168.3090  0.00  0.00     0.000 O
ATOM     14  HD  IDS F   1     -14.357  54.672 167.8720  0.00  0.00     0.000 HD
ATOM     14   O  IDS F   1     -14.522  58.176 166.2660  0.00  0.00     0.000 O
ATOM     16  HD  IDS F   1     -14.941  57.556 165.8300  0.00  0.00     0.000 HD
ATOM     16   O  IDS F   1     -18.119  58.745 167.3770  0.00  0.00     0.000 OA
ATOM     17   O  IDS F   1     -17.722  57.285 165.9320  0.00  0.00     0.000 OA
ATOM     18   C  IDS F   1     -17.413  57.828 166.9800  0.00  0.00     0.000 C
ENDROOT
BRANCH 1 19
ATOM     19  O4  SGN F   2     -15.023  58.837 170.7630  0.00  0.00     0.000 O
BRANCH 19 23
ATOM     20  C1  SGN F   2     -16.620  57.314 174.3010  0.00  0.00     0.000 C
ATOM     21  C2  SGN F   2     -17.510  58.292 173.5510  0.00  0.00     0.000 C
ATOM     22  C3  SGN F   2     -17.120  58.361 172.0680  0.00  0.00     0.000 C
ATOM     23  C4  SGN F   2     -15.613  58.772 172.0430  0.00  0.00     0.000 C
ATOM     24  C5  SGN F   2     -14.875  57.712 172.7910  0.00  0.00     0.000 C
ATOM     25  O5  SGN F   2     -15.281  57.684 174.1220  0.00  0.00     0.000 O
ATOM     26   N  SGN F   2     -18.928  57.957 173.8240  0.00  0.00     0.000 N
ATOM     28  HD  SGN F   2     -19.646  57.880 173.3460  0.00  0.00     0.000 HD
ATOM     28   S  SGN F   2     -19.601  58.533 175.2460  0.00  0.00     0.000 S
ATOM     29   O  SGN F   2     -18.696  58.198 176.3220  0.00  0.00     0.000 OA
ATOM     30   O  SGN F   2     -19.716  59.961 175.0470  0.00  0.00     0.000 OA
ATOM     31   O  SGN F   2     -20.875  57.925 175.3730  0.00  0.00     0.000 OA
ATOM     32   O  SGN F   2     -17.921  59.355 171.4400  0.00  0.00     0.000 O
ATOM     34  HD  SGN F   2     -18.639  59.278 170.9620  0.00  0.00     0.000 HD
ATOM     34   C  SGN F   2     -13.401  57.944 172.8040  0.00  0.00     0.000 C
ATOM     35   O  SGN F   2     -13.238  59.222 173.3180  0.00  0.00     0.000 O
ATOM     36   S  SGN F   2     -11.928  59.894 173.7160  0.00  0.00     0.000 S
ATOM     37   O  SGN F   2     -11.903  61.125 172.9680  0.00  0.00     0.000 OA
ATOM     38   O  SGN F   2     -12.034  60.064 175.1490  0.00  0.00     0.000 OA
ATOM     39   O  SGN F   2     -10.852  58.985 173.3440  0.00  0.00     0.000 OA
BRANCH 20 40
ATOM     40  O4  IDS F   3     -16.823  55.995 173.8690  0.00  0.00     0.000 O
BRANCH 40 44
ATOM     41  C1  IDS F   3     -17.467  52.565 173.9870  0.00  0.00     0.000 C
ATOM     42  C2  IDS F   3     -17.943  53.461 175.1030  0.00  0.00     0.000 C
ATOM     43  C3  IDS F   3     -16.805  54.401 175.6560  0.00  0.00     0.000 C
ATOM     44  C4  IDS F   3     -16.008  55.039 174.5340  0.00  0.00     0.000 C
ATOM     45  C5  IDS F   3     -15.570  53.953 173.5520  0.00  0.00     0.000 C
ATOM     46  O5  IDS F   3     -16.701  53.300 173.0210  0.00  0.00     0.000 O
ATOM     47   O  IDS F   3     -20.430  55.139 176.3200  0.00  0.00     0.000 OA
ATOM     48   O  IDS F   3     -21.341  54.759 174.1700  0.00  0.00     0.000 OA
ATOM     49   O  IDS F   3     -20.702  52.924 175.5940  0.00  0.00     0.000 OA
ATOM     50   O  IDS F   3     -19.047  54.238 174.6250  0.00  0.00     0.000 O
ATOM     51   S  IDS F   3     -20.469  54.266 175.2030  0.00  0.00     0.000 S
ATOM     52   O  IDS F   3     -15.891  53.637 176.4350  0.00  0.00     0.000 O
ATOM     54  HD  IDS F   3     -16.737  53.545 176.2750  0.00  0.00     0.000 HD
ATOM     54   C  IDS F   3     -14.644  54.427 172.4270  0.00  0.00     0.000 C
ATOM     55   O  IDS F   3     -15.081  54.680 171.3070  0.00  0.00     0.000 OA
ATOM     56   O  IDS F   3     -13.430  54.580 172.6170  0.00  0.00     0.000 OA
BRANCH 41 57
ATOM     57  O4  SGN F   4     -16.747  51.503 174.5400  0.00  0.00     0.000 O
BRANCH 57 61
ATOM     58  C1  SGN F   4     -16.066  47.560 173.6820  0.00  0.00     0.000 C
ATOM     59  C2  SGN F   4     -15.591  48.575 172.6310  0.00  0.00     0.000 C
ATOM     60  C3  SGN F   4     -15.521  49.979 173.2070  0.00  0.00     0.000 C
ATOM     61  C4  SGN F   4     -16.870  50.308 173.8420  0.00  0.00     0.000 C
ATOM     62  C5  SGN F   4     -17.275  49.197 174.8310  0.00  0.00     0.000 C
ATOM     63  O5  SGN F   4     -17.306  47.955 174.1980  0.00  0.00     0.000 O
ATOM     64   N  SGN F   4     -14.319  48.171 172.0640  0.00  0.00     0.000 N
ATOM     66  HD  SGN F   4     -15.121  47.920 172.2730  0.00  0.00     0.000 HD
ATOM     66   S  SGN F   4     -14.350  47.147 170.7950  0.00  0.00     0.000 S
ATOM     67   O  SGN F   4     -14.822  45.877 171.3150  0.00  0.00     0.000 OA
ATOM     68   O  SGN F   4     -15.255  47.696 169.7880  0.00  0.00     0.000 OA
ATOM     69   O  SGN F   4     -12.967  47.095 170.3780  0.00  0.00     0.000 OA
ATOM     70   O  SGN F   4     -15.287  50.914 172.1630  0.00  0.00     0.000 O
ATOM     72  HD  SGN F   4     -16.089  50.663 172.3720  0.00  0.00     0.000 HD
ATOM     72   C  SGN F   4     -18.652  49.361 175.4200  0.00  0.00     0.000 C
ATOM     73   O  SGN F   4     -19.569  49.363 174.3500  0.00  0.00     0.000 O
ATOM     74   S  SGN F   4     -21.039  48.857 174.4220  0.00  0.00     0.000 S
ATOM     75   O  SGN F   4     -21.546  49.130 175.7260  0.00  0.00     0.000 OA
ATOM     76   O  SGN F   4     -21.789  49.564 173.3860  0.00  0.00     0.000 OA
ATOM     77   O  SGN F   4     -20.922  47.465 174.2230  0.00  0.00     0.000 OA
BRANCH 58 78
ATOM     78  O4  IDS F   5     -15.107  47.412 174.7020  0.00  0.00     0.000 O
BRANCH 78 82
ATOM     79  C1  IDS F   5     -13.085  46.370 177.3430  0.00  0.00     0.000 C
ATOM     80  C2  IDS F   5     -12.515  46.562 175.9450  0.00  0.00     0.000 C
ATOM     81  C3  IDS F   5     -13.327  45.810 174.8890  0.00  0.00     0.000 C
ATOM     82  C4  IDS F   5     -14.836  46.086 175.0560  0.00  0.00     0.000 C
ATOM     83  C5  IDS F   5     -15.246  45.854 176.5120  0.00  0.00     0.000 C
ATOM     84  O5  IDS F   5     -14.462  46.645 177.3800  0.00  0.00     0.000 O
ATOM     85   O  IDS F   5     -12.784  45.062 177.7620  0.00  0.00     0.000 OA
ATOM     86   O  IDS F   5     -12.578  47.925 175.6320  0.00  0.00     0.000 O
ATOM     87   S  IDS F   5     -11.798  48.692 174.5140  0.00  0.00     0.000 S
ATOM     88   O  IDS F   5     -11.578  47.767 173.4340  0.00  0.00     0.000 OA
ATOM     89   O  IDS F   5     -12.643  49.797 174.1210  0.00  0.00     0.000 OA
ATOM     90   O  IDS F   5     -10.564  49.095 175.1350  0.00  0.00     0.000 OA
ATOM     91   O  IDS F   5     -13.093  44.426 175.0570  0.00  0.00     0.000 O
ATOM     93  HD  IDS F   5     -13.820  44.183 175.4610  0.00  0.00     0.000 HD
ATOM     93   O  IDS F   5     -17.110  46.946 177.5000  0.00  0.00     0.000 OA
ATOM     94   O  IDS F   5     -17.562  45.344 176.2640  0.00  0.00     0.000 OA
ATOM     95   C  IDS F   5     -16.725  46.062 176.7780  0.00  0.00     0.000 C
ENDBRANCH 78 82
ENDBRANCH 58 78
ENDBRANCH 57 61
ENDBRANCH 41 57
ENDBRANCH 40 44
ENDBRANCH 20 40
ENDBRANCH 19 23
ENDBRANCH 1 19
TORSDOF 8
ENDMDL
MODEL 10
REMARK VINA RESULT:      -7.4      4.602     12.226
FFDIST PL LJ 2322 74 36 -1
ROOT
ATOM      1  C1  IDS F   1     -21.827  45.400 175.3600  0.00  0.00     0.000 C
ATOM      2  C2  IDS F   1     -21.102  44.050 175.2400  0.00  0.00     0.000 C
ATOM      3  C3  IDS F   1     -20.632  43.487 176.6040  0.00  0.00     0.000 C
ATOM      4  C4  IDS F   1     -21.627  43.736 177.7610  0.00  0.00     0.000 C
ATOM      5  C5  IDS F   1     -22.260  45.126 177.6300  0.00  0.00     0.000 C
ATOM      6  O5  IDS F   1     -22.803  45.290 176.3620  0.00  0.00     0.000 O
ATOM      7   S  IDS F   1     -21.573  41.706 173.9830  0.00  0.00     0.000 S
ATOM      8   O  IDS F   1     -20.722  41.052 174.9310  0.00  0.00     0.000 OA
ATOM      9   O  IDS F   1     -22.780  40.961 173.7710  0.00  0.00     0.000 OA
ATOM     10   O  IDS F   1     -20.896  42.057 172.7550  0.00  0.00     0.000 OA
ATOM     11   O  IDS F   1     -21.961  43.086 174.6660  0.00  0.00     0.000 O
ATOM     12   O  IDS F   1     -19.386  44.089 176.9440  0.00  0.00     0.000 O
ATOM     14  HD  IDS F   1     -19.086  44.281 177.7330  0.00  0.00     0.000 HD
ATOM     14   O  IDS F   1     -22.627  42.751 177.6750  0.00  0.00     0.000 O
ATOM     16  HD  IDS F   1     -22.328  42.944 178.4640  0.00  0.00     0.000 HD
ATOM     16   O  IDS F   1     -24.312  46.099 178.3440  0.00  0.00     0.000 OA
ATOM     17   O  IDS F   1     -23.153  45.227 179.8510  0.00  0.00     0.000 OA
ATOM     18   C  IDS F   1     -23.298  45.498 178.6700  0.00  0.00     0.000 C
ENDROOT
BRANCH 1 19
ATOM     19  O4  SGN F   2     -22.471  45.674 174.1620  0.00  0.00     0.000 O
BRANCH 19 23
ATOM     20  C1  SGN F   2     -20.292  48.445 171.9340  0.00  0.00     0.000 C
ATOM     21  C2  SGN F   2     -21.239  49.037 172.9650  0.00  0.00     0.000 C
ATOM     22  C3  SGN F   2     -21.556  48.016 174.0670  0.00  0.00     0.000 C
ATOM     23  C4  SGN F   2     -22.158  46.774 173.3350  0.00  0.00     0.000 C
ATOM     24  C5  SGN F   2     -21.112  46.298 172.3830  0.00  0.00     0.000 C
ATOM     25  O5  SGN F   2     -20.853  47.269 171.4200  0.00  0.00     0.000 O
ATOM     26   N  SGN F   2     -20.689  50.332 173.4340  0.00  0.00     0.000 N
ATOM     28  HD  SGN F   2     -20.585  50.715 174.2030  0.00  0.00     0.000 HD
ATOM     28   S  SGN F   2     -20.977  51.684 172.4870  0.00  0.00     0.000 S
ATOM     29   O  SGN F   2     -20.620  51.346 171.1270  0.00  0.00     0.000 OA
ATOM     30   O  SGN F   2     -22.391  51.944 172.6370  0.00  0.00     0.000 OA
ATOM     31   O  SGN F   2     -20.198  52.737 173.0280  0.00  0.00     0.000 OA
ATOM     32   O  SGN F   2     -22.514  48.591 174.9480  0.00  0.00     0.000 O
ATOM     34  HD  SGN F   2     -22.409  48.974 175.7180  0.00  0.00     0.000 HD
ATOM     34   C  SGN F   2     -21.529  45.071 171.6440  0.00  0.00     0.000 C
ATOM     35   O  SGN F   2     -22.737  45.399 171.0450  0.00  0.00     0.000 O
ATOM     36   S  SGN F   2     -23.512  44.572 170.0250  0.00  0.00     0.000 S
ATOM     37   O  SGN F   2     -24.826  44.418 170.5970  0.00  0.00     0.000 OA
ATOM     38   O  SGN F   2     -23.473  45.366 168.8160  0.00  0.00     0.000 OA
ATOM     39   O  SGN F   2     -22.808  43.304 169.8780  0.00  0.00     0.000 OA
BRANCH 20 40
ATOM     40  O4  IDS F   3     -19.028  48.183 172.4820  0.00  0.00     0.000 O
BRANCH 40 44
ATOM     41  C1  IDS F   3     -15.646  48.135 173.3490  0.00  0.00     0.000 C
ATOM     42  C2  IDS F   3     -16.390  49.445 173.2870  0.00  0.00     0.000 C
ATOM     43  C3  IDS F   3     -17.194  49.626 171.9440  0.00  0.00     0.000 C
ATOM     44  C4  IDS F   3     -17.954  48.367 171.5690  0.00  0.00     0.000 C
ATOM     45  C5  IDS F   3     -17.004  47.172 171.6330  0.00  0.00     0.000 C
ATOM     46  O5  IDS F   3     -16.480  47.042 172.9360  0.00  0.00     0.000 O
ATOM     47   O  IDS F   3     -17.975  51.710 174.9710  0.00  0.00     0.000 OA
ATOM     48   O  IDS F   3     -17.945  50.045 176.6520  0.00  0.00     0.000 OA
ATOM     49   O  IDS F   3     -15.901  50.890 175.6990  0.00  0.00     0.000 OA
ATOM     50   O  IDS F   3     -17.272  49.522 174.4130  0.00  0.00     0.000 O
ATOM     51   S  IDS F   3     -17.274  50.599 175.5070  0.00  0.00     0.000 S
ATOM     52   O  IDS F   3     -16.289  49.898 170.8790  0.00  0.00     0.000 O
ATOM     54  HD  IDS F   3     -16.256  50.066 171.7280  0.00  0.00     0.000 HD
ATOM     54   C  IDS F   3     -17.597  45.842 171.1560  0.00  0.00     0.000 C
ATOM     55   O  IDS F   3     -18.026  45.014 171.9550  0.00  0.00     0.000 OA
ATOM     56   O  IDS F   3     -17.672  45.568 169.9510  0.00  0.00     0.000 OA
BRANCH 41 57
ATOM     57  O4  SGN F   4     -14.486  48.241 172.5750  0.00  0.00     0.000 O
BRANCH 57 61
ATOM     58  C1  SGN F   4     -10.663  46.840 172.9870  0.00  0.00     0.000 C
ATOM     59  C2  SGN F   4     -11.575  46.054 172.0310  0.00  0.00     0.000 C
ATOM     60  C3  SGN F   4     -12.802  46.861 171.6450  0.00  0.00     0.000 C
ATOM     61  C4  SGN F   4     -13.486  47.342 172.9230  0.00  0.00     0.000 C
ATOM     62  C5  SGN F   4     -12.469  48.061 173.8300  0.00  0.00     0.000 C
ATOM     63  O5  SGN F   4     -11.387  47.230 174.1200  0.00  0.00     0.000 O
ATOM     64   N  SGN F   4     -10.838  45.617 170.8610  0.00  0.00     0.000 N
ATOM     66  HD  SGN F   4     -10.846  45.662 171.7260  0.00  0.00     0.000 HD
ATOM     66   S  SGN F   4     -10.032  44.203 170.9620  0.00  0.00     0.000 S
ATOM     67   O  SGN F   4      -8.941  44.429 171.8910  0.00  0.00     0.000 OA
ATOM     68   O  SGN F   4     -10.960  43.182 171.4450  0.00  0.00     0.000 OA
ATOM     69   O  SGN F   4      -9.572  43.987 169.6090  0.00  0.00     0.000 OA
ATOM     70   O  SGN F   4     -13.718  46.035 170.9410  0.00  0.00     0.000 O
ATOM     72  HD  SGN F   4     -13.725  46.080 171.8060  0.00  0.00     0.000 HD
ATOM     72   C  SGN F   4     -13.013  48.464 175.1770  0.00  0.00     0.000 C
ATOM     73   O  SGN F   4     -13.438  47.288 175.8270  0.00  0.00     0.000 O
ATOM     74   S  SGN F   4     -13.444  47.061 177.3660  0.00  0.00     0.000 S
ATOM     75   O  SGN F   4     -13.721  48.305 178.0040  0.00  0.00     0.000 OA
ATOM     76   O  SGN F   4     -14.472  46.061 177.6500  0.00  0.00     0.000 OA
ATOM     77   O  SGN F   4     -12.124  46.650 177.6460  0.00  0.00     0.000 OA
BRANCH 58 78
ATOM     78  O4  IDS F   5     -10.092  47.948 172.3330  0.00  0.00     0.000 O
BRANCH 78 82
ATOM     79  C1  IDS F   5      -8.140  50.605 171.2040  0.00  0.00     0.000 C
ATOM     80  C2  IDS F   5      -8.261  49.320 170.3970  0.00  0.00     0.000 C
ATOM     81  C3  IDS F   5      -7.955  48.083 171.2440  0.00  0.00     0.000 C
ATOM     82  C4  IDS F   5      -8.728  48.127 172.5800  0.00  0.00     0.000 C
ATOM     83  C5  IDS F   5      -8.507  49.480 173.2600  0.00  0.00     0.000 C
ATOM     84  O5  IDS F   5      -8.877  50.535 172.3970  0.00  0.00     0.000 O
ATOM     85   O  IDS F   5      -6.774  50.854 171.4270  0.00  0.00     0.000 OA
ATOM     86   O  IDS F   5      -9.583  49.209 169.9510  0.00  0.00     0.000 O
ATOM     87   S  IDS F   5     -10.136  48.308 168.7980  0.00  0.00     0.000 S
ATOM     88   O  IDS F   5      -9.308  47.132 168.7400  0.00  0.00     0.000 OA
ATOM     89   O  IDS F   5     -11.502  47.995 169.1530  0.00  0.00     0.000 OA
ATOM     90   O  IDS F   5     -10.012  49.110 167.6100  0.00  0.00     0.000 OA
ATOM     91   O  IDS F   5      -6.568  48.067 171.5170  0.00  0.00     0.000 O
ATOM     93  HD  IDS F   5      -6.557  48.350 172.3350  0.00  0.00     0.000 HD
ATOM     93   O  IDS F   5     -10.079  50.415 174.7770  0.00  0.00     0.000 OA
ATOM     94   O  IDS F   5      -8.875  48.913 175.5470  0.00  0.00     0.000 OA
ATOM     95   C  IDS F   5      -9.195  49.615 174.6060  0.00  0.00     0.000 C
ENDBRANCH 78 82
ENDBRANCH 58 78
ENDBRANCH 57 61
ENDBRANCH 41 57
ENDBRANCH 40 44
ENDBRANCH 20 40
ENDBRANCH 19 23
ENDBRANCH 1 19
TORSDOF 8
ENDMDL
MODEL 11
REMARK VINA RESULT:      -7.3      2.831     11.963
FFDIST PL LJ 2322 74 36 -1
ROOT
ATOM      1  C1  IDS F   1     -18.436  56.656 171.5290  0.00  0.00     0.000 C
ATOM      2  C2  IDS F   1     -17.394  56.988 172.6090  0.00  0.00     0.000 C
ATOM      3  C3  IDS F   1     -16.031  57.433 172.0240  0.00  0.00     0.000 C
ATOM      4  C4  IDS F   1     -16.149  58.313 170.7580  0.00  0.00     0.000 C
ATOM      5  C5  IDS F   1     -17.292  57.815 169.8670  0.00  0.00     0.000 C
ATOM      6  O5  IDS F   1     -18.465  57.708 170.6030  0.00  0.00     0.000 O
ATOM      7   S  IDS F   1     -17.356  58.464 174.8720  0.00  0.00     0.000 S
ATOM      8   O  IDS F   1     -15.934  58.576 174.7480  0.00  0.00     0.000 OA
ATOM      9   O  IDS F   1     -17.948  59.729 175.1980  0.00  0.00     0.000 OA
ATOM     10   O  IDS F   1     -17.769  57.397 175.7530  0.00  0.00     0.000 OA
ATOM     11   O  IDS F   1     -17.860  58.044 173.4250  0.00  0.00     0.000 O
ATOM     12   O  IDS F   1     -15.272  56.272 171.6970  0.00  0.00     0.000 O
ATOM     14  HD  IDS F   1     -14.703  56.173 171.0510  0.00  0.00     0.000 HD
ATOM     14   O  IDS F   1     -16.419  59.626 171.1830  0.00  0.00     0.000 O
ATOM     16  HD  IDS F   1     -15.850  59.528 170.5370  0.00  0.00     0.000 HD
ATOM     16   O  IDS F   1     -18.713  58.831 168.2500  0.00  0.00     0.000 OA
ATOM     17   O  IDS F   1     -16.660  59.037 167.9060  0.00  0.00     0.000 OA
ATOM     18   C  IDS F   1     -17.564  58.609 168.6060  0.00  0.00     0.000 C
ENDROOT
BRANCH 1 19
ATOM     19  O4  SGN F   2     -19.687  56.570 172.1220  0.00  0.00     0.000 O
BRANCH 19 23
ATOM     20  C1  SGN F   2     -20.896  52.579 172.1770  0.00  0.00     0.000 C
ATOM     21  C2  SGN F   2     -21.332  53.377 170.9580  0.00  0.00     0.000 C
ATOM     22  C3  SGN F   2     -20.423  54.596 170.7470  0.00  0.00     0.000 C
ATOM     23  C4  SGN F   2     -20.505  55.420 172.0710  0.00  0.00     0.000 C
ATOM     24  C5  SGN F   2     -20.027  54.518 173.1600  0.00  0.00     0.000 C
ATOM     25  O5  SGN F   2     -20.877  53.425 173.2930  0.00  0.00     0.000 O
ATOM     26   N  SGN F   2     -21.448  52.458 169.7990  0.00  0.00     0.000 N
ATOM     28  HD  SGN F   2     -21.202  52.479 168.9690  0.00  0.00     0.000 HD
ATOM     28   S  SGN F   2     -22.863  51.574 169.6490  0.00  0.00     0.000 S
ATOM     29   O  SGN F   2     -23.125  50.951 170.9270  0.00  0.00     0.000 OA
ATOM     30   O  SGN F   2     -23.870  52.550 169.2950  0.00  0.00     0.000 OA
ATOM     31   O  SGN F   2     -22.656  50.643 168.6010  0.00  0.00     0.000 OA
ATOM     32   O  SGN F   2     -20.933  55.351 169.6540  0.00  0.00     0.000 O
ATOM     34  HD  SGN F   2     -20.688  55.372 168.8240  0.00  0.00     0.000 HD
ATOM     34   C  SGN F   2     -19.997  55.195 174.4900  0.00  0.00     0.000 C
ATOM     35   O  SGN F   2     -21.282  55.683 174.6780  0.00  0.00     0.000 O
ATOM     36   S  SGN F   2     -21.853  56.302 175.9500  0.00  0.00     0.000 S
ATOM     37   O  SGN F   2     -22.351  57.591 175.5410  0.00  0.00     0.000 OA
ATOM     38   O  SGN F   2     -22.875  55.369 176.3730  0.00  0.00     0.000 OA
ATOM     39   O  SGN F   2     -20.759  56.397 176.9080  0.00  0.00     0.000 OA
BRANCH 20 40
ATOM     40  O4  IDS F   3     -19.636  51.993 171.9870  0.00  0.00     0.000 O
BRANCH 40 44
ATOM     41  C1  IDS F   3     -17.283  49.420 172.1720  0.00  0.00     0.000 C
ATOM     42  C2  IDS F   3     -18.746  49.121 172.3840  0.00  0.00     0.000 C
ATOM     43  C3  IDS F   3     -19.421  50.091 173.4260  0.00  0.00     0.000 C
ATOM     44  C4  IDS F   3     -19.027  51.537 173.1870  0.00  0.00     0.000 C
ATOM     45  C5  IDS F   3     -17.506  51.626 173.0660  0.00  0.00     0.000 C
ATOM     46  O5  IDS F   3     -17.059  50.827 171.9940  0.00  0.00     0.000 O
ATOM     47   O  IDS F   3     -21.491  48.071 171.0280  0.00  0.00     0.000 OA
ATOM     48   O  IDS F   3     -20.272  48.405 169.0280  0.00  0.00     0.000 OA
ATOM     49   O  IDS F   3     -19.475  46.907 170.7380  0.00  0.00     0.000 OA
ATOM     50   O  IDS F   3     -19.415  49.200 171.1200  0.00  0.00     0.000 O
ATOM     51   S  IDS F   3     -20.207  48.081 170.4280  0.00  0.00     0.000 S
ATOM     52   O  IDS F   3     -18.991  49.754 174.7410  0.00  0.00     0.000 O
ATOM     54  HD  IDS F   3     -19.095  49.280 174.0240  0.00  0.00     0.000 HD
ATOM     54   C  IDS F   3     -16.944  53.047 172.9500  0.00  0.00     0.000 C
ATOM     55   O  IDS F   3     -16.641  53.523 171.8580  0.00  0.00     0.000 OA
ATOM     56   O  IDS F   3     -16.788  53.760 173.9500  0.00  0.00     0.000 OA
BRANCH 41 57
ATOM     57  O4  SGN F   4     -16.559  48.899 173.2480  0.00  0.00     0.000 O
BRANCH 57 61
ATOM     58  C1  SGN F   4     -12.741  47.511 173.7490  0.00  0.00     0.000 C
ATOM     59  C2  SGN F   4     -12.986  48.979 174.1320  0.00  0.00     0.000 C
ATOM     60  C3  SGN F   4     -14.467  49.272 174.2930  0.00  0.00     0.000 C
ATOM     61  C4  SGN F   4     -15.189  48.818 173.0260  0.00  0.00     0.000 C
ATOM     62  C5  SGN F   4     -14.827  47.356 172.7040  0.00  0.00     0.000 C
ATOM     63  O5  SGN F   4     -13.446  47.202 172.5790  0.00  0.00     0.000 O
ATOM     64   N  SGN F   4     -12.243  49.328 175.3280  0.00  0.00     0.000 N
ATOM     66  HD  SGN F   4     -12.207  48.956 174.5470  0.00  0.00     0.000 HD
ATOM     66   S  SGN F   4     -10.702  49.824 175.1410  0.00  0.00     0.000 S
ATOM     67   O  SGN F   4      -9.956  48.660 174.6990  0.00  0.00     0.000 OA
ATOM     68   O  SGN F   4     -10.684  50.896 174.1460  0.00  0.00     0.000 OA
ATOM     69   O  SGN F   4     -10.327  50.250 176.4700  0.00  0.00     0.000 OA
ATOM     70   O  SGN F   4     -14.667  50.671 174.4360  0.00  0.00     0.000 O
ATOM     72  HD  SGN F   4     -14.631  50.298 173.6550  0.00  0.00     0.000 HD
ATOM     72   C  SGN F   4     -15.387  46.848 171.4010  0.00  0.00     0.000 C
ATOM     73   O  SGN F   4     -14.878  47.671 170.3760  0.00  0.00     0.000 O
ATOM     74   S  SGN F   4     -14.605  47.222 168.9120  0.00  0.00     0.000 S
ATOM     75   O  SGN F   4     -15.579  46.246 168.5510  0.00  0.00     0.000 OA
ATOM     76   O  SGN F   4     -14.693  48.416 168.0720  0.00  0.00     0.000 OA
ATOM     77   O  SGN F   4     -13.324  46.637 168.9760  0.00  0.00     0.000 OA
BRANCH 58 78
ATOM     78  O4  IDS F   5     -13.097  46.653 174.8060  0.00  0.00     0.000 O
BRANCH 78 82
ATOM     79  C1  IDS F   5     -13.492  44.055 177.0960  0.00  0.00     0.000 C
ATOM     80  C2  IDS F   5     -12.839  45.369 177.5030  0.00  0.00     0.000 C
ATOM     81  C3  IDS F   5     -11.707  45.763 176.5520  0.00  0.00     0.000 C
ATOM     82  C4  IDS F   5     -12.161  45.651 175.0810  0.00  0.00     0.000 C
ATOM     83  C5  IDS F   5     -12.797  44.281 174.8380  0.00  0.00     0.000 C
ATOM     84  O5  IDS F   5     -13.861  44.062 175.7410  0.00  0.00     0.000 O
ATOM     85   O  IDS F   5     -12.603  43.011 177.4080  0.00  0.00     0.000 OA
ATOM     86   O  IDS F   5     -13.811  46.375 177.4400  0.00  0.00     0.000 O
ATOM     87   S  IDS F   5     -13.774  47.790 178.1040  0.00  0.00     0.000 S
ATOM     88   O  IDS F   5     -12.394  48.195 178.1710  0.00  0.00     0.000 OA
ATOM     89   O  IDS F   5     -14.554  48.655 177.2500  0.00  0.00     0.000 OA
ATOM     90   O  IDS F   5     -14.340  47.599 179.4130  0.00  0.00     0.000 OA
ATOM     91   O  IDS F   5     -10.624  44.880 176.7670  0.00  0.00     0.000 O
ATOM     93  HD  IDS F   5     -10.706  44.351 176.0860  0.00  0.00     0.000 HD
ATOM     93   O  IDS F   5     -14.409  43.908 173.1340  0.00  0.00     0.000 OA
ATOM     94   O  IDS F   5     -12.439  44.013 172.4960  0.00  0.00     0.000 OA
ATOM     95   C  IDS F   5     -13.244  44.051 173.4070  0.00  0.00     0.000 C
ENDBRANCH 78 82
ENDBRANCH 58 78
ENDBRANCH 57 61
ENDBRANCH 41 57
ENDBRANCH 40 44
ENDBRANCH 20 40
ENDBRANCH 19 23
ENDBRANCH 1 19
TORSDOF 8
ENDMDL
MODEL 12
REMARK VINA RESULT:      -7.1      4.169     11.265
FFDIST PL LJ 2322 74 36 -1
ROOT
ATOM      1  C1  IDS F   1     -16.360  57.906 169.4150  0.00  0.00     0.000 C
ATOM      2  C2  IDS F   1     -17.555  58.436 168.6060  0.00  0.00     0.000 C
ATOM      3  C3  IDS F   1     -17.148  59.462 167.5200  0.00  0.00     0.000 C
ATOM      4  C4  IDS F   1     -15.814  59.131 166.8110  0.00  0.00     0.000 C
ATOM      5  C5  IDS F   1     -14.803  58.568 167.8170  0.00  0.00     0.000 C
ATOM      6  O5  IDS F   1     -15.360  57.505 168.5170  0.00  0.00     0.000 O
ATOM      7   S  IDS F   1     -19.675  57.337 167.3410  0.00  0.00     0.000 S
ATOM      8   O  IDS F   1     -19.758  58.503 166.5150  0.00  0.00     0.000 OA
ATOM      9   O  IDS F   1     -19.808  56.140 166.5630  0.00  0.00     0.000 OA
ATOM     10   O  IDS F   1     -20.564  57.379 168.4790  0.00  0.00     0.000 OA
ATOM     11   O  IDS F   1     -18.206  57.369 167.9470  0.00  0.00     0.000 O
ATOM     12   O  IDS F   1     -17.031  60.748 168.1230  0.00  0.00     0.000 O
ATOM     14  HD  IDS F   1     -16.488  61.388 167.9100  0.00  0.00     0.000 HD
ATOM     14   O  IDS F   1     -16.089  58.165 165.8270  0.00  0.00     0.000 O
ATOM     16  HD  IDS F   1     -15.546  58.805 165.6140  0.00  0.00     0.000 HD
ATOM     16   O  IDS F   1     -12.916  57.126 167.6560  0.00  0.00     0.000 OA
ATOM     17   O  IDS F   1     -12.870  58.816 166.4230  0.00  0.00     0.000 OA
ATOM     18   C  IDS F   1     -13.457  58.149 167.2610  0.00  0.00     0.000 C
ENDROOT
BRANCH 1 19
ATOM     19  O4  SGN F   2     -16.762  56.792 170.1360  0.00  0.00     0.000 O
BRANCH 19 23
ATOM     20  C1  SGN F   2     -16.890  55.265 174.0140  0.00  0.00     0.000 C
ATOM     21  C2  SGN F   2     -17.880  56.380 173.7190  0.00  0.00     0.000 C
ATOM     22  C3  SGN F   2     -18.151  56.487 172.2110  0.00  0.00     0.000 C
ATOM     23  C4  SGN F   2     -16.757  56.723 171.5450  0.00  0.00     0.000 C
ATOM     24  C5  SGN F   2     -15.914  55.545 171.9040  0.00  0.00     0.000 C
ATOM     25  O5  SGN F   2     -15.718  55.488 173.2800  0.00  0.00     0.000 O
ATOM     26   N  SGN F   2     -19.079  56.195 174.5710  0.00  0.00     0.000 N
ATOM     28  HD  SGN F   2     -19.936  56.228 174.4460  0.00  0.00     0.000 HD
ATOM     28   S  SGN F   2     -19.006  56.764 176.1460  0.00  0.00     0.000 S
ATOM     29   O  SGN F   2     -17.781  56.266 176.7310  0.00  0.00     0.000 OA
ATOM     30   O  SGN F   2     -19.011  58.203 176.0170  0.00  0.00     0.000 OA
ATOM     31   O  SGN F   2     -20.173  56.299 176.8040  0.00  0.00     0.000 OA
ATOM     32   O  SGN F   2     -19.008  57.601 171.9880  0.00  0.00     0.000 O
ATOM     34  HD  SGN F   2     -19.864  57.633 171.8630  0.00  0.00     0.000 HD
ATOM     34   C  SGN F   2     -14.557  55.605 171.2860  0.00  0.00     0.000 C
ATOM     35   O  SGN F   2     -14.030  56.825 171.6830  0.00  0.00     0.000 O
ATOM     36   S  SGN F   2     -12.600  57.317 171.4850  0.00  0.00     0.000 S
ATOM     37   O  SGN F   2     -12.737  58.578 170.8000  0.00  0.00     0.000 OA
ATOM     38   O  SGN F   2     -12.066  57.417 172.8250  0.00  0.00     0.000 OA
ATOM     39   O  SGN F   2     -11.909  56.313 170.6860  0.00  0.00     0.000 OA
BRANCH 20 40
ATOM     40  O4  IDS F   3     -17.424  54.005 173.7080  0.00  0.00     0.000 O
BRANCH 40 44
ATOM     41  C1  IDS F   3     -18.509  50.688 173.5910  0.00  0.00     0.000 C
ATOM     42  C2  IDS F   3     -19.066  51.627 174.6320  0.00  0.00     0.000 C
ATOM     43  C3  IDS F   3     -17.939  52.405 175.4140  0.00  0.00     0.000 C
ATOM     44  C4  IDS F   3     -16.874  52.944 174.4780  0.00  0.00     0.000 C
ATOM     45  C5  IDS F   3     -16.404  51.819 173.5560  0.00  0.00     0.000 C
ATOM     46  O5  IDS F   3     -17.491  51.325 172.8060  0.00  0.00     0.000 O
ATOM     47   O  IDS F   3     -21.500  53.605 175.4310  0.00  0.00     0.000 OA
ATOM     48   O  IDS F   3     -22.039  53.369 173.1390  0.00  0.00     0.000 OA
ATOM     49   O  IDS F   3     -21.914  51.453 174.5940  0.00  0.00     0.000 OA
ATOM     50   O  IDS F   3     -19.954  52.547 173.9870  0.00  0.00     0.000 O
ATOM     51   S  IDS F   3     -21.443  52.757 174.2960  0.00  0.00     0.000 S
ATOM     52   O  IDS F   3     -17.289  51.519 176.3200  0.00  0.00     0.000 O
ATOM     54  HD  IDS F   3     -18.096  51.541 176.0060  0.00  0.00     0.000 HD
ATOM     54   C  IDS F   3     -15.233  52.179 172.6350  0.00  0.00     0.000 C
ATOM     55   O  IDS F   3     -15.420  52.498 171.4630  0.00  0.00     0.000 OA
ATOM     56   O  IDS F   3     -14.065  52.169 173.0480  0.00  0.00     0.000 OA
BRANCH 41 57
ATOM     57  O4  SGN F   4     -18.045  49.535 174.2300  0.00  0.00     0.000 O
BRANCH 57 61
ATOM     58  C1  SGN F   4     -17.544  45.605 173.2040  0.00  0.00     0.000 C
ATOM     59  C2  SGN F   4     -16.367  46.543 172.8930  0.00  0.00     0.000 C
ATOM     60  C3  SGN F   4     -16.483  47.851 173.6570  0.00  0.00     0.000 C
ATOM     61  C4  SGN F   4     -17.861  48.450 173.3820  0.00  0.00     0.000 C
ATOM     62  C5  SGN F   4     -18.959  47.407 173.6690  0.00  0.00     0.000 C
ATOM     63  O5  SGN F   4     -18.754  46.250 172.9170  0.00  0.00     0.000 O
ATOM     64   N  SGN F   4     -15.103  45.885 173.1580  0.00  0.00     0.000 N
ATOM     66  HD  SGN F   4     -15.877  45.819 172.7760  0.00  0.00     0.000 HD
ATOM     66   S  SGN F   4     -14.459  44.980 171.9630  0.00  0.00     0.000 S
ATOM     67   O  SGN F   4     -15.330  43.829 171.8190  0.00  0.00     0.000 OA
ATOM     68   O  SGN F   4     -14.417  45.791 170.7480  0.00  0.00     0.000 OA
ATOM     69   O  SGN F   4     -13.156  44.628 172.4800  0.00  0.00     0.000 OA
ATOM     70   O  SGN F   4     -15.505  48.768 173.1880  0.00  0.00     0.000 O
ATOM     72  HD  SGN F   4     -16.279  48.702 172.8060  0.00  0.00     0.000 HD
ATOM     72   C  SGN F   4     -20.352  47.855 173.3090  0.00  0.00     0.000 C
ATOM     73   O  SGN F   4     -20.357  48.142 171.9300  0.00  0.00     0.000 O
ATOM     74   S  SGN F   4     -21.583  47.996 170.9830  0.00  0.00     0.000 S
ATOM     75   O  SGN F   4     -22.763  48.299 171.7240  0.00  0.00     0.000 OA
ATOM     76   O  SGN F   4     -21.384  48.925 169.8730  0.00  0.00     0.000 OA
ATOM     77   O  SGN F   4     -21.567  46.631 170.6250  0.00  0.00     0.000 OA
BRANCH 58 78
ATOM     78  O4  IDS F   5     -17.497  45.170 174.5410  0.00  0.00     0.000 O
BRANCH 78 82
ATOM     79  C1  IDS F   5     -17.727  43.496 177.5900  0.00  0.00     0.000 C
ATOM     80  C2  IDS F   5     -16.390  43.658 176.8820  0.00  0.00     0.000 C
ATOM     81  C3  IDS F   5     -16.455  43.194 175.4250  0.00  0.00     0.000 C
ATOM     82  C4  IDS F   5     -17.684  43.794 174.7110  0.00  0.00     0.000 C
ATOM     83  C5  IDS F   5     -18.940  43.552 175.5510  0.00  0.00     0.000 C
ATOM     84  O5  IDS F   5     -18.773  44.075 176.8530  0.00  0.00     0.000 O
ATOM     85   O  IDS F   5     -17.931  42.126 177.8310  0.00  0.00     0.000 OA
ATOM     86   O  IDS F   5     -16.063  45.020 176.8750  0.00  0.00     0.000 O
ATOM     87   S  IDS F   5     -14.663  45.671 176.6260  0.00  0.00     0.000 S
ATOM     88   O  IDS F   5     -13.941  44.805 175.7320  0.00  0.00     0.000 OA
ATOM     89   O  IDS F   5     -14.921  46.966 176.0390  0.00  0.00     0.000 OA
ATOM     90   O  IDS F   5     -14.048  45.733 177.9250  0.00  0.00     0.000 OA
ATOM     91   O  IDS F   5     -16.562  41.784 175.4170  0.00  0.00     0.000 O
ATOM     93  HD  IDS F   5     -17.406  41.684 175.2490  0.00  0.00     0.000 HD
ATOM     93   O  IDS F   5     -20.847  44.963 175.4270  0.00  0.00     0.000 OA
ATOM     94   O  IDS F   5     -20.635  43.605 173.8750  0.00  0.00     0.000 OA
ATOM     95   C  IDS F   5     -20.217  44.071 174.9180  0.00  0.00     0.000 C
ENDBRANCH 78 82
ENDBRANCH 58 78
ENDBRANCH 57 61
ENDBRANCH 41 57
ENDBRANCH 40 44
ENDBRANCH 20 40
ENDBRANCH 19 23
ENDBRANCH 1 19
TORSDOF 8
ENDMDL
MODEL 13
REMARK VINA RESULT:      -7.0      3.051      6.756
FFDIST PL LJ 2322 74 36 -1
ROOT
ATOM      1  C1  IDS F   1      -8.221  47.131 171.6140  0.00  0.00     0.000 C
ATOM      2  C2  IDS F   1      -7.230  46.008 171.2670  0.00  0.00     0.000 C
ATOM      3  C3  IDS F   1      -5.822  46.531 170.8950  0.00  0.00     0.000 C
ATOM      4  C4  IDS F   1      -5.360  47.744 171.7360  0.00  0.00     0.000 C
ATOM      5  C5  IDS F   1      -6.537  48.692 171.9940  0.00  0.00     0.000 C
ATOM      6  O5  IDS F   1      -7.608  47.992 172.5360  0.00  0.00     0.000 O
ATOM      7   S  IDS F   1      -6.499  43.659 172.3860  0.00  0.00     0.000 S
ATOM      8   O  IDS F   1      -5.252  43.741 171.6880  0.00  0.00     0.000 OA
ATOM      9   O  IDS F   1      -6.304  43.272 173.7530  0.00  0.00     0.000 OA
ATOM     10   O  IDS F   1      -7.485  42.855 171.7020  0.00  0.00     0.000 OA
ATOM     11   O  IDS F   1      -7.073  45.141 172.3720  0.00  0.00     0.000 O
ATOM     12   O  IDS F   1      -5.821  46.909 169.5210  0.00  0.00     0.000 O
ATOM     14  HD  IDS F   1      -5.370  47.545 169.1440  0.00  0.00     0.000 HD
ATOM     14   O  IDS F   1      -4.875  47.247 172.9590  0.00  0.00     0.000 O
ATOM     16  HD  IDS F   1      -4.424  47.884 172.5820  0.00  0.00     0.000 HD
ATOM     16   O  IDS F   1      -7.060  50.279 173.6900  0.00  0.00     0.000 OA
ATOM     17   O  IDS F   1      -5.225  50.559 172.7240  0.00  0.00     0.000 OA
ATOM     18   C  IDS F   1      -6.250  49.909 172.8500  0.00  0.00     0.000 C
ENDROOT
BRANCH 1 19
ATOM     19  O4  SGN F   2      -9.337  46.576 172.2210  0.00  0.00     0.000 O
BRANCH 19 23
ATOM     20  C1  SGN F   2     -13.032  45.097 170.9750  0.00  0.00     0.000 C
ATOM     21  C2  SGN F   2     -12.032  44.049 171.4390  0.00  0.00     0.000 C
ATOM     22  C3  SGN F   2     -10.976  44.672 172.3630  0.00  0.00     0.000 C
ATOM     23  C4  SGN F   2     -10.311  45.819 171.5350  0.00  0.00     0.000 C
ATOM     24  C5  SGN F   2     -11.405  46.769 171.1770  0.00  0.00     0.000 C
ATOM     25  O5  SGN F   2     -12.340  46.146 170.3560  0.00  0.00     0.000 O
ATOM     26   N  SGN F   2     -12.773  42.895 172.0030  0.00  0.00     0.000 N
ATOM     28  HD  SGN F   2     -12.698  42.400 172.7090  0.00  0.00     0.000 HD
ATOM     28   S  SGN F   2     -13.370  41.757 170.9280  0.00  0.00     0.000 S
ATOM     29   O  SGN F   2     -14.084  42.470 169.8920  0.00  0.00     0.000 OA
ATOM     30   O  SGN F   2     -12.198  41.079 170.4230  0.00  0.00     0.000 OA
ATOM     31   O  SGN F   2     -14.194  40.879 171.6760  0.00  0.00     0.000 OA
ATOM     32   O  SGN F   2     -10.020  43.670 172.6890  0.00  0.00     0.000 O
ATOM     34  HD  SGN F   2      -9.945  43.175 173.3950  0.00  0.00     0.000 HD
ATOM     34   C  SGN F   2     -10.906  47.956 170.4240  0.00  0.00     0.000 C
ATOM     35   O  SGN F   2     -10.224  47.435 169.3340  0.00  0.00     0.000 O
ATOM     36   S  SGN F   2      -9.669  48.208 168.1420  0.00  0.00     0.000 S
ATOM     37   O  SGN F   2      -8.274  47.852 168.0890  0.00  0.00     0.000 OA
ATOM     38   O  SGN F   2     -10.451  47.741 167.0170  0.00  0.00     0.000 OA
ATOM     39   O  SGN F   2      -9.881  49.624 168.4140  0.00  0.00     0.000 OA
BRANCH 20 40
ATOM     40  O4  IDS F   3     -13.804  45.582 172.0400  0.00  0.00     0.000 O
BRANCH 40 44
ATOM     41  C1  IDS F   3     -16.791  46.605 173.5310  0.00  0.00     0.000 C
ATOM     42  C2  IDS F   3     -16.819  45.871 172.2140  0.00  0.00     0.000 C
ATOM     43  C3  IDS F   3     -15.833  46.491 171.1510  0.00  0.00     0.000 C
ATOM     44  C4  IDS F   3     -14.477  46.802 171.7550  0.00  0.00     0.000 C
ATOM     45  C5  IDS F   3     -14.674  47.602 173.0420  0.00  0.00     0.000 C
ATOM     46  O5  IDS F   3     -15.444  46.858 173.9590  0.00  0.00     0.000 O
ATOM     47   O  IDS F   3     -17.188  43.010 170.7470  0.00  0.00     0.000 OA
ATOM     48   O  IDS F   3     -16.917  42.190 172.9500  0.00  0.00     0.000 OA
ATOM     49   O  IDS F   3     -18.690  43.726 172.4010  0.00  0.00     0.000 OA
ATOM     50   O  IDS F   3     -16.497  44.496 172.4520  0.00  0.00     0.000 O
ATOM     51   S  IDS F   3     -17.374  43.278 172.1270  0.00  0.00     0.000 S
ATOM     52   O  IDS F   3     -16.365  47.720 170.6670  0.00  0.00     0.000 O
ATOM     54  HD  IDS F   3     -16.743  47.001 170.9680  0.00  0.00     0.000 HD
ATOM     54   C  IDS F   3     -13.384  48.102 173.7020  0.00  0.00     0.000 C
ATOM     55   O  IDS F   3     -12.879  47.500 174.6470  0.00  0.00     0.000 OA
ATOM     56   O  IDS F   3     -12.808  49.120 173.2960  0.00  0.00     0.000 OA
BRANCH 41 57
ATOM     57  O4  SGN F   4     -17.538  47.780 173.4050  0.00  0.00     0.000 O
BRANCH 57 61
ATOM     58  C1  SGN F   4     -19.534  50.330 175.9080  0.00  0.00     0.000 C
ATOM     59  C2  SGN F   4     -18.005  50.482 175.8620  0.00  0.00     0.000 C
ATOM     60  C3  SGN F   4     -17.416  49.795 174.6420  0.00  0.00     0.000 C
ATOM     61  C4  SGN F   4     -17.910  48.350 174.6170  0.00  0.00     0.000 C
ATOM     62  C5  SGN F   4     -19.446  48.314 174.7290  0.00  0.00     0.000 C
ATOM     63  O5  SGN F   4     -19.877  48.972 175.8800  0.00  0.00     0.000 O
ATOM     64   N  SGN F   4     -17.627  51.881 175.9160  0.00  0.00     0.000 N
ATOM     66  HD  SGN F   4     -18.114  51.258 176.2690  0.00  0.00     0.000 HD
ATOM     66   S  SGN F   4     -17.467  52.562 177.3890  0.00  0.00     0.000 S
ATOM     67   O  SGN F   4     -18.805  52.629 177.9480  0.00  0.00     0.000 OA
ATOM     68   O  SGN F   4     -16.582  51.718 178.1890  0.00  0.00     0.000 OA
ATOM     69   O  SGN F   4     -16.924  53.869 177.0930  0.00  0.00     0.000 OA
ATOM     70   O  SGN F   4     -15.999  49.773 174.7430  0.00  0.00     0.000 O
ATOM     72  HD  SGN F   4     -16.485  49.149 175.0960  0.00  0.00     0.000 HD
ATOM     72   C  SGN F   4     -20.029  46.928 174.8400  0.00  0.00     0.000 C
ATOM     73   O  SGN F   4     -19.482  46.335 175.9950  0.00  0.00     0.000 O
ATOM     74   S  SGN F   4     -20.191  45.273 176.8840  0.00  0.00     0.000 S
ATOM     75   O  SGN F   4     -21.008  44.457 176.0480  0.00  0.00     0.000 OA
ATOM     76   O  SGN F   4     -19.144  44.497 177.5460  0.00  0.00     0.000 OA
ATOM     77   O  SGN F   4     -20.993  46.045 177.7500  0.00  0.00     0.000 OA
BRANCH 58 78
ATOM     78  O4  IDS F   5     -20.139  51.035 174.8510  0.00  0.00     0.000 O
BRANCH 78 82
ATOM     79  C1  IDS F   5     -22.257  52.768 172.6920  0.00  0.00     0.000 C
ATOM     80  C2  IDS F   5     -21.029  53.437 173.2940  0.00  0.00     0.000 C
ATOM     81  C3  IDS F   5     -20.983  53.284 174.8160  0.00  0.00     0.000 C
ATOM     82  C4  IDS F   5     -21.235  51.818 175.2290  0.00  0.00     0.000 C
ATOM     83  C5  IDS F   5     -22.495  51.296 174.5370  0.00  0.00     0.000 C
ATOM     84  O5  IDS F   5     -22.389  51.442 173.1370  0.00  0.00     0.000 O
ATOM     85   O  IDS F   5     -23.379  53.556 173.0010  0.00  0.00     0.000 OA
ATOM     86   O  IDS F   5     -19.891  52.809 172.7730  0.00  0.00     0.000 O
ATOM     87   S  IDS F   5     -18.420  53.339 172.7620  0.00  0.00     0.000 S
ATOM     88   O  IDS F   5     -18.254  54.164 173.9290  0.00  0.00     0.000 OA
ATOM     89   O  IDS F   5     -17.571  52.170 172.7960  0.00  0.00     0.000 OA
ATOM     90   O  IDS F   5     -18.312  54.102 171.5470  0.00  0.00     0.000 OA
ATOM     91   O  IDS F   5     -21.997  54.098 175.3700  0.00  0.00     0.000 O
ATOM     93  HD  IDS F   5     -22.601  53.505 175.5570  0.00  0.00     0.000 HD
ATOM     93   O  IDS F   5     -22.836  48.988 174.0850  0.00  0.00     0.000 OA
ATOM     94   O  IDS F   5     -23.169  49.576 176.0450  0.00  0.00     0.000 OA
ATOM     95   C  IDS F   5     -22.856  49.869 174.9070  0.00  0.00     0.000 C
ENDBRANCH 78 82
ENDBRANCH 58 78
ENDBRANCH 57 61
ENDBRANCH 41 57
ENDBRANCH 40 44
ENDBRANCH 20 40
ENDBRANCH 19 23
ENDBRANCH 1 19
TORSDOF 8
ENDMDL
MODEL 14
REMARK VINA RESULT:      -6.9      2.810      5.906
FFDIST PL LJ 2322 74 36 -1
ROOT
ATOM      1  C1  IDS F   1      -8.867  46.780 173.3820  0.00  0.00     0.000 C
ATOM      2  C2  IDS F   1      -8.130  45.433 173.2980  0.00  0.00     0.000 C
ATOM      3  C3  IDS F   1      -6.590  45.581 173.2840  0.00  0.00     0.000 C
ATOM      4  C4  IDS F   1      -6.058  46.702 174.2060  0.00  0.00     0.000 C
ATOM      5  C5  IDS F   1      -6.991  47.918 174.1590  0.00  0.00     0.000 C
ATOM      6  O5  IDS F   1      -8.299  47.530 174.4220  0.00  0.00     0.000 O
ATOM      7   S  IDS F   1      -8.291  43.058 174.5770  0.00  0.00     0.000 S
ATOM      8   O  IDS F   1      -6.932  42.795 174.2100  0.00  0.00     0.000 OA
ATOM      9   O  IDS F   1      -8.529  42.728 175.9520  0.00  0.00     0.000 OA
ATOM     10   O  IDS F   1      -9.251  42.467 173.6740  0.00  0.00     0.000 OA
ATOM     11   O  IDS F   1      -8.461  44.629 174.4130  0.00  0.00     0.000 O
ATOM     12   O  IDS F   1      -6.167  45.855 171.9510  0.00  0.00     0.000 O
ATOM     14  HD  IDS F   1      -5.497  46.340 171.6940  0.00  0.00     0.000 HD
ATOM     14   O  IDS F   1      -6.017  46.187 175.5140  0.00  0.00     0.000 O
ATOM     16  HD  IDS F   1      -5.347  46.672 175.2580  0.00  0.00     0.000 HD
ATOM     16   O  IDS F   1      -7.496  49.693 175.6630  0.00  0.00     0.000 OA
ATOM     17   O  IDS F   1      -5.473  49.464 175.1810  0.00  0.00     0.000 OA
ATOM     18   C  IDS F   1      -6.627  49.086 175.0530  0.00  0.00     0.000 C
ENDROOT
BRANCH 1 19
ATOM     19  O4  SGN F   2     -10.197  46.548 173.6960  0.00  0.00     0.000 O
BRANCH 19 23
ATOM     20  C1  SGN F   2     -13.741  45.986 171.5710  0.00  0.00     0.000 C
ATOM     21  C2  SGN F   2     -13.187  44.747 172.2550  0.00  0.00     0.000 C
ATOM     22  C3  SGN F   2     -12.257  45.131 173.4150  0.00  0.00     0.000 C
ATOM     23  C4  SGN F   2     -11.141  46.025 172.7860  0.00  0.00     0.000 C
ATOM     24  C5  SGN F   2     -11.834  47.201 172.1810  0.00  0.00     0.000 C
ATOM     25  O5  SGN F   2     -12.675  46.791 171.1500  0.00  0.00     0.000 O
ATOM     26   N  SGN F   2     -14.313  43.850 172.6100  0.00  0.00     0.000 N
ATOM     28  HD  SGN F   2     -14.540  43.392 173.3090  0.00  0.00     0.000 HD
ATOM     28   S  SGN F   2     -14.911  42.844 171.4110  0.00  0.00     0.000 S
ATOM     29   O  SGN F   2     -15.147  43.657 170.2390  0.00  0.00     0.000 OA
ATOM     30   O  SGN F   2     -13.868  41.864 171.2010  0.00  0.00     0.000 OA
ATOM     31   O  SGN F   2     -16.087  42.245 171.9270  0.00  0.00     0.000 OA
ATOM     32   O  SGN F   2     -11.699  43.939 173.9550  0.00  0.00     0.000 O
ATOM     34  HD  SGN F   2     -11.925  43.480 174.6540  0.00  0.00     0.000 HD
ATOM     34   C  SGN F   2     -10.880  48.180 171.5840  0.00  0.00     0.000 C
ATOM     35   O  SGN F   2     -10.117  47.446 170.6880  0.00  0.00     0.000 O
ATOM     36   S  SGN F   2      -9.113  47.986 169.6750  0.00  0.00     0.000 S
ATOM     37   O  SGN F   2      -7.887  47.287 169.9620  0.00  0.00     0.000 OA
ATOM     38   O  SGN F   2      -9.698  47.672 168.3890  0.00  0.00     0.000 OA
ATOM     39   O  SGN F   2      -9.010  49.423 169.9010  0.00  0.00     0.000 OA
BRANCH 20 40
ATOM     40  O4  IDS F   3     -14.592  46.708 172.4200  0.00  0.00     0.000 O
BRANCH 40 44
ATOM     41  C1  IDS F   3     -17.518  48.458 173.1730  0.00  0.00     0.000 C
ATOM     42  C2  IDS F   3     -17.432  47.642 171.9070  0.00  0.00     0.000 C
ATOM     43  C3  IDS F   3     -16.132  47.951 171.0710  0.00  0.00     0.000 C
ATOM     44  C4  IDS F   3     -14.899  48.015 171.9520  0.00  0.00     0.000 C
ATOM     45  C5  IDS F   3     -15.177  48.941 173.1360  0.00  0.00     0.000 C
ATOM     46  O5  IDS F   3     -16.270  48.454 173.8820  0.00  0.00     0.000 O
ATOM     47   O  IDS F   3     -18.118  44.815 170.4890  0.00  0.00     0.000 OA
ATOM     48   O  IDS F   3     -18.507  44.137 172.7220  0.00  0.00     0.000 OA
ATOM     49   O  IDS F   3     -19.734  45.964 171.7410  0.00  0.00     0.000 OA
ATOM     50   O  IDS F   3     -17.485  46.254 172.2560  0.00  0.00     0.000 O
ATOM     51   S  IDS F   3     -18.524  45.227 171.7830  0.00  0.00     0.000 S
ATOM     52   O  IDS F   3     -16.260  49.222 170.4410  0.00  0.00     0.000 O
ATOM     54  HD  IDS F   3     -16.845  48.626 170.6730  0.00  0.00     0.000 HD
ATOM     54   C  IDS F   3     -13.977  49.208 174.0510  0.00  0.00     0.000 C
ATOM     55   O  IDS F   3     -13.830  48.592 175.1030  0.00  0.00     0.000 OA
ATOM     56   O  IDS F   3     -13.115  50.045 173.7510  0.00  0.00     0.000 OA
BRANCH 41 57
ATOM     57  O4  SGN F   4     -17.939  49.751 172.8450  0.00  0.00     0.000 O
BRANCH 57 61
ATOM     58  C1  SGN F   4     -20.003  52.635 174.8870  0.00  0.00     0.000 C
ATOM     59  C2  SGN F   4     -18.486  52.844 174.7640  0.00  0.00     0.000 C
ATOM     60  C3  SGN F   4     -17.890  51.966 173.6770  0.00  0.00     0.000 C
ATOM     61  C4  SGN F   4     -18.312  50.522 173.9390  0.00  0.00     0.000 C
ATOM     62  C5  SGN F   4     -19.842  50.438 174.1040  0.00  0.00     0.000 C
ATOM     63  O5  SGN F   4     -20.278  51.283 175.1250  0.00  0.00     0.000 O
ATOM     64   N  SGN F   4     -18.177  54.244 174.5430  0.00  0.00     0.000 N
ATOM     66  HD  SGN F   4     -18.623  53.677 175.0220  0.00  0.00     0.000 HD
ATOM     66   S  SGN F   4     -18.018  55.198 175.8560  0.00  0.00     0.000 S
ATOM     67   O  SGN F   4     -19.344  55.309 176.4340  0.00  0.00     0.000 OA
ATOM     68   O  SGN F   4     -17.074  54.561 176.7720  0.00  0.00     0.000 OA
ATOM     69   O  SGN F   4     -17.548  56.447 175.3030  0.00  0.00     0.000 OA
ATOM     70   O  SGN F   4     -16.472  52.027 173.7360  0.00  0.00     0.000 O
ATOM     72  HD  SGN F   4     -16.918  51.460 174.2140  0.00  0.00     0.000 HD
ATOM     72   C  SGN F   4     -20.351  49.074 174.4930  0.00  0.00     0.000 C
ATOM     73   O  SGN F   4     -19.750  48.735 175.7210  0.00  0.00     0.000 O
ATOM     74   S  SGN F   4     -20.384  47.829 176.8150  0.00  0.00     0.000 S
ATOM     75   O  SGN F   4     -21.178  46.835 176.1730  0.00  0.00     0.000 OA
ATOM     76   O  SGN F   4     -19.284  47.240 177.5770  0.00  0.00     0.000 OA
ATOM     77   O  SGN F   4     -21.204  48.714 177.5460  0.00  0.00     0.000 OA
BRANCH 58 78
ATOM     78  O4  IDS F   5     -20.666  53.100 173.7360  0.00  0.00     0.000 O
BRANCH 78 82
ATOM     79  C1  IDS F   5     -22.877  54.341 171.3440  0.00  0.00     0.000 C
ATOM     80  C2  IDS F   5     -21.709  55.180 171.8450  0.00  0.00     0.000 C
ATOM     81  C3  IDS F   5     -21.672  55.252 173.3730  0.00  0.00     0.000 C
ATOM     82  C4  IDS F   5     -21.821  53.846 173.9930  0.00  0.00     0.000 C
ATOM     83  C5  IDS F   5     -23.032  53.137 173.3820  0.00  0.00     0.000 C
ATOM     84  O5  IDS F   5     -22.918  53.087 171.9750  0.00  0.00     0.000 O
ATOM     85   O  IDS F   5     -24.058  55.080 171.5330  0.00  0.00     0.000 OA
ATOM     86   O  IDS F   5     -20.522  54.569 171.4230  0.00  0.00     0.000 O
ATOM     87   S  IDS F   5     -19.094  55.199 171.3390  0.00  0.00     0.000 S
ATOM     88   O  IDS F   5     -19.004  56.194 172.3750  0.00  0.00     0.000 OA
ATOM     89   O  IDS F   5     -18.162  54.114 171.5440  0.00  0.00     0.000 OA
ATOM     90   O  IDS F   5     -19.025  55.785 170.0260  0.00  0.00     0.000 OA
ATOM     91   O  IDS F   5     -22.750  56.059 173.8020  0.00  0.00     0.000 O
ATOM     93  HD  IDS F   5     -23.311  55.456 174.0710  0.00  0.00     0.000 HD
ATOM     93   O  IDS F   5     -23.197  50.770 173.2680  0.00  0.00     0.000 OA
ATOM     94   O  IDS F   5     -23.597  51.607 175.1210  0.00  0.00     0.000 OA
ATOM     95   C  IDS F   5     -23.292  51.755 173.9530  0.00  0.00     0.000 C
ENDBRANCH 78 82
ENDBRANCH 58 78
ENDBRANCH 57 61
ENDBRANCH 41 57
ENDBRANCH 40 44
ENDBRANCH 20 40
ENDBRANCH 19 23
ENDBRANCH 1 19
TORSDOF 8
ENDMDL
MODEL 15
REMARK VINA RESULT:      -6.9      4.540     12.808
FFDIST PL LJ 2322 74 36 -1
ROOT
ATOM      1  C1  IDS F   1     -20.710  48.060 172.2060  0.00  0.00     0.000 C
ATOM      2  C2  IDS F   1     -20.709  49.389 172.9790  0.00  0.00     0.000 C
ATOM      3  C3  IDS F   1     -20.517  50.625 172.0670  0.00  0.00     0.000 C
ATOM      4  C4  IDS F   1     -21.240  50.518 170.7040  0.00  0.00     0.000 C
ATOM      5  C5  IDS F   1     -21.148  49.086 170.1630  0.00  0.00     0.000 C
ATOM      6  O5  IDS F   1     -21.590  48.181 171.1200  0.00  0.00     0.000 O
ATOM      7   S  IDS F   1     -22.268  50.529 174.8690  0.00  0.00     0.000 S
ATOM      8   O  IDS F   1     -21.795  51.814 174.4520  0.00  0.00     0.000 OA
ATOM      9   O  IDS F   1     -23.689  50.536 175.0580  0.00  0.00     0.000 OA
ATOM     10   O  IDS F   1     -21.545  49.994 176.0000  0.00  0.00     0.000 OA
ATOM     11   O  IDS F   1     -21.939  49.559 173.6550  0.00  0.00     0.000 O
ATOM     12   O  IDS F   1     -19.124  50.804 171.8240  0.00  0.00     0.000 O
ATOM     14  HD  IDS F   1     -18.744  51.116 171.1110  0.00  0.00     0.000 HD
ATOM     14   O  IDS F   1     -22.588  50.858 170.9160  0.00  0.00     0.000 O
ATOM     16  HD  IDS F   1     -22.208  51.169 170.2030  0.00  0.00     0.000 HD
ATOM     16   O  IDS F   1     -22.477  47.770 168.6900  0.00  0.00     0.000 OA
ATOM     17   O  IDS F   1     -21.817  49.600 167.9210  0.00  0.00     0.000 OA
ATOM     18   C  IDS F   1     -21.855  48.811 168.8520  0.00  0.00     0.000 C
ENDROOT
BRANCH 1 19
ATOM     19  O4  SGN F   2     -21.187  47.056 173.0360  0.00  0.00     0.000 O
BRANCH 19 23
ATOM     20  C1  SGN F   2     -18.103  44.296 173.5510  0.00  0.00     0.000 C
ATOM     21  C2  SGN F   2     -19.162  43.909 172.5300  0.00  0.00     0.000 C
ATOM     22  C3  SGN F   2     -19.903  45.150 172.0120  0.00  0.00     0.000 C
ATOM     23  C4  SGN F   2     -20.504  45.844 173.2760  0.00  0.00     0.000 C
ATOM     24  C5  SGN F   2     -19.351  46.181 174.1610  0.00  0.00     0.000 C
ATOM     25  O5  SGN F   2     -18.708  45.022 174.5850  0.00  0.00     0.000 O
ATOM     26   N  SGN F   2     -18.538  43.057 171.4900  0.00  0.00     0.000 N
ATOM     28  HD  SGN F   2     -18.562  43.023 170.6250  0.00  0.00     0.000 HD
ATOM     28   S  SGN F   2     -18.359  41.426 171.8280  0.00  0.00     0.000 S
ATOM     29   O  SGN F   2     -17.742  41.318 173.1310  0.00  0.00     0.000 OA
ATOM     30   O  SGN F   2     -19.704  40.897 171.8090  0.00  0.00     0.000 OA
ATOM     31   O  SGN F   2     -17.572  40.875 170.7850  0.00  0.00     0.000 OA
ATOM     32   O  SGN F   2     -20.938  44.720 171.1360  0.00  0.00     0.000 O
ATOM     34  HD  SGN F   2     -20.962  44.686 170.2710  0.00  0.00     0.000 HD
ATOM     34   C  SGN F   2     -19.772  46.906 175.3960  0.00  0.00     0.000 C
ATOM     35   O  SGN F   2     -20.726  46.091 175.9890  0.00  0.00     0.000 O
ATOM     36   S  SGN F   2     -21.355  46.264 177.3670  0.00  0.00     0.000 S
ATOM     37   O  SGN F   2     -22.775  46.286 177.1240  0.00  0.00     0.000 OA
ATOM     38   O  SGN F   2     -20.891  45.118 178.1180  0.00  0.00     0.000 OA
ATOM     39   O  SGN F   2     -20.855  47.522 177.9100  0.00  0.00     0.000 OA
BRANCH 20 40
ATOM     40  O4  IDS F   3     -17.073  45.046 172.9660  0.00  0.00     0.000 O
BRANCH 40 44
ATOM     41  C1  IDS F   3     -13.727  45.786 172.2960  0.00  0.00     0.000 C
ATOM     42  C2  IDS F   3     -14.097  44.458 172.9080  0.00  0.00     0.000 C
ATOM     43  C3  IDS F   3     -15.044  44.607 174.1600  0.00  0.00     0.000 C
ATOM     44  C4  IDS F   3     -16.161  45.601 173.9050  0.00  0.00     0.000 C
ATOM     45  C5  IDS F   3     -15.564  46.894 173.3500  0.00  0.00     0.000 C
ATOM     46  O5  IDS F   3     -14.877  46.631 172.1470  0.00  0.00     0.000 O
ATOM     47   O  IDS F   3     -14.716  41.329 172.3520  0.00  0.00     0.000 OA
ATOM     48   O  IDS F   3     -14.839  42.068 170.1080  0.00  0.00     0.000 OA
ATOM     49   O  IDS F   3     -12.839  42.378 171.4140  0.00  0.00     0.000 OA
ATOM     50   O  IDS F   3     -14.722  43.652 171.9020  0.00  0.00     0.000 O
ATOM     51   S  IDS F   3     -14.253  42.277 171.4040  0.00  0.00     0.000 S
ATOM     52   O  IDS F   3     -14.295  45.097 175.2680  0.00  0.00     0.000 O
ATOM     54  HD  IDS F   3     -14.073  44.613 174.5840  0.00  0.00     0.000 HD
ATOM     54   C  IDS F   3     -16.559  48.044 173.1620  0.00  0.00     0.000 C
ATOM     55   O  IDS F   3     -17.048  48.288 172.0620  0.00  0.00     0.000 OA
ATOM     56   O  IDS F   3     -16.909  48.753 174.1160  0.00  0.00     0.000 OA
BRANCH 41 57
ATOM     57  O4  SGN F   4     -12.730  46.377 173.0790  0.00  0.00     0.000 O
BRANCH 57 61
ATOM     58  C1  SGN F   4      -9.524  48.311 171.4270  0.00  0.00     0.000 C
ATOM     59  C2  SGN F   4     -10.139  48.961 172.6770  0.00  0.00     0.000 C
ATOM     60  C3  SGN F   4     -11.030  47.987 173.4280  0.00  0.00     0.000 C
ATOM     61  C4  SGN F   4     -12.048  47.409 172.4470  0.00  0.00     0.000 C
ATOM     62  C5  SGN F   4     -11.328  46.840 171.2090  0.00  0.00     0.000 C
ATOM     63  O5  SGN F   4     -10.540  47.817 170.6000  0.00  0.00     0.000 O
ATOM     64   N  SGN F   4      -9.104  49.503 173.5350  0.00  0.00     0.000 N
ATOM     66  HD  SGN F   4      -9.409  49.455 172.7260  0.00  0.00     0.000 HD
ATOM     66   S  SGN F   4      -8.585  51.018 173.2270  0.00  0.00     0.000 S
ATOM     67   O  SGN F   4      -7.871  50.948 171.9660  0.00  0.00     0.000 OA
ATOM     68   O  SGN F   4      -9.753  51.894 173.1470  0.00  0.00     0.000 OA
ATOM     69   O  SGN F   4      -7.713  51.303 174.3430  0.00  0.00     0.000 OA
ATOM     70   O  SGN F   4     -11.743  48.676 174.4450  0.00  0.00     0.000 O
ATOM     72  HD  SGN F   4     -12.048  48.627 173.6360  0.00  0.00     0.000 HD
ATOM     72   C  SGN F   4     -12.251  46.359 170.1190  0.00  0.00     0.000 C
ATOM     73   O  SGN F   4     -13.033  47.459 169.7150  0.00  0.00     0.000 O
ATOM     74   S  SGN F   4     -13.610  47.678 168.2870  0.00  0.00     0.000 S
ATOM     75   O  SGN F   4     -13.924  46.405 167.7270  0.00  0.00     0.000 OA
ATOM     76   O  SGN F   4     -14.798  48.519 168.4270  0.00  0.00     0.000 OA
ATOM     77   O  SGN F   4     -12.542  48.273 167.5840  0.00  0.00     0.000 OA
BRANCH 58 78
ATOM     78  O4  IDS F   5      -8.615  47.299 171.7870  0.00  0.00     0.000 O
BRANCH 78 82
ATOM     79  C1  IDS F   5      -6.072  44.928 172.0260  0.00  0.00     0.000 C
ATOM     80  C2  IDS F   5      -6.016  46.224 172.8230  0.00  0.00     0.000 C
ATOM     81  C3  IDS F   5      -6.222  47.451 171.9320  0.00  0.00     0.000 C
ATOM     82  C4  IDS F   5      -7.450  47.264 171.0150  0.00  0.00     0.000 C
ATOM     83  C5  IDS F   5      -7.357  45.918 170.2940  0.00  0.00     0.000 C
ATOM     84  O5  IDS F   5      -7.225  44.865 171.2270  0.00  0.00     0.000 O
ATOM     85   O  IDS F   5      -4.888  44.825 171.2750  0.00  0.00     0.000 OA
ATOM     86   O  IDS F   5      -7.056  46.204 173.7600  0.00  0.00     0.000 O
ATOM     87   S  IDS F   5      -7.210  47.084 175.0430  0.00  0.00     0.000 S
ATOM     88   O  IDS F   5      -6.574  48.347 174.7750  0.00  0.00     0.000 OA
ATOM     89   O  IDS F   5      -8.631  47.225 175.2650  0.00  0.00     0.000 OA
ATOM     90   O  IDS F   5      -6.529  46.351 176.0780  0.00  0.00     0.000 OA
ATOM     91   O  IDS F   5      -5.070  47.611 171.1300  0.00  0.00     0.000 O
ATOM     93  HD  IDS F   5      -5.351  47.297 170.3730  0.00  0.00     0.000 HD
ATOM     93   O  IDS F   5      -9.276  44.749 169.5240  0.00  0.00     0.000 OA
ATOM     94   O  IDS F   5      -8.667  46.344 168.3480  0.00  0.00     0.000 OA
ATOM     95   C  IDS F   5      -8.500  45.650 169.3340  0.00  0.00     0.000 C
ENDBRANCH 78 82
ENDBRANCH 58 78
ENDBRANCH 57 61
ENDBRANCH 41 57
ENDBRANCH 40 44
ENDBRANCH 20 40
ENDBRANCH 19 23
ENDBRANCH 1 19
TORSDOF 8
ENDMDL
MODEL 16
REMARK VINA RESULT:      -6.9      2.691      5.931
FFDIST PL LJ 2322 74 36 -1
ROOT
ATOM      1  C1  IDS F   1      -8.795  46.493 172.8130  0.00  0.00     0.000 C
ATOM      2  C2  IDS F   1      -8.339  45.047 172.5620  0.00  0.00     0.000 C
ATOM      3  C3  IDS F   1      -6.801  44.900 172.4700  0.00  0.00     0.000 C
ATOM      4  C4  IDS F   1      -6.025  45.800 173.4590  0.00  0.00     0.000 C
ATOM      5  C5  IDS F   1      -6.704  47.168 173.5810  0.00  0.00     0.000 C
ATOM      6  O5  IDS F   1      -8.051  47.012 173.8830  0.00  0.00     0.000 O
ATOM      7   S  IDS F   1      -8.907  42.627 173.6220  0.00  0.00     0.000 S
ATOM      8   O  IDS F   1      -7.641  42.150 173.1520  0.00  0.00     0.000 OA
ATOM      9   O  IDS F   1      -9.150  42.209 174.9720  0.00  0.00     0.000 OA
ATOM     10   O  IDS F   1      -9.999  42.325 172.7260  0.00  0.00     0.000 OA
ATOM     11   O  IDS F   1      -8.775  44.210 173.6140  0.00  0.00     0.000 O
ATOM     12   O  IDS F   1      -6.387  45.225 171.1450  0.00  0.00     0.000 O
ATOM     14  HD  IDS F   1      -5.646  45.597 170.8960  0.00  0.00     0.000 HD
ATOM     14   O  IDS F   1      -6.032  45.155 174.7090  0.00  0.00     0.000 O
ATOM     16  HD  IDS F   1      -5.291  45.527 174.4600  0.00  0.00     0.000 HD
ATOM     16   O  IDS F   1      -6.794  48.844 175.2700  0.00  0.00     0.000 OA
ATOM     17   O  IDS F   1      -4.875  48.286 174.6500  0.00  0.00     0.000 OA
ATOM     18   C  IDS F   1      -6.084  48.149 174.5560  0.00  0.00     0.000 C
ENDROOT
BRANCH 1 19
ATOM     19  O4  SGN F   2     -10.132  46.486 173.1830  0.00  0.00     0.000 O
BRANCH 19 23
ATOM     20  C1  SGN F   2     -13.796  46.732 171.2060  0.00  0.00     0.000 C
ATOM     21  C2  SGN F   2     -13.464  45.372 171.8000  0.00  0.00     0.000 C
ATOM     22  C3  SGN F   2     -12.435  45.505 172.9310  0.00  0.00     0.000 C
ATOM     23  C4  SGN F   2     -11.193  46.207 172.2950  0.00  0.00     0.000 C
ATOM     24  C5  SGN F   2     -11.669  47.525 171.7830  0.00  0.00     0.000 C
ATOM     25  O5  SGN F   2     -12.612  47.344 170.7760  0.00  0.00     0.000 O
ATOM     26   N  SGN F   2     -14.728  44.687 172.1640  0.00  0.00     0.000 N
ATOM     28  HD  SGN F   2     -15.011  44.239 172.8490  0.00  0.00     0.000 HD
ATOM     28   S  SGN F   2     -15.552  43.883 170.9460  0.00  0.00     0.000 S
ATOM     29   O  SGN F   2     -15.672  44.794 169.8290  0.00  0.00     0.000 OA
ATOM     30   O  SGN F   2     -14.726  42.738 170.6370  0.00  0.00     0.000 OA
ATOM     31   O  SGN F   2     -16.801  43.489 171.4880  0.00  0.00     0.000 OA
ATOM     32   O  SGN F   2     -12.096  44.199 173.3830  0.00  0.00     0.000 O
ATOM     34  HD  SGN F   2     -12.379  43.751 174.0680  0.00  0.00     0.000 HD
ATOM     34   C  SGN F   2     -10.568  48.340 171.1900  0.00  0.00     0.000 C
ATOM     35   O  SGN F   2      -9.995  47.527 170.2230  0.00  0.00     0.000 O
ATOM     36   S  SGN F   2      -8.946  47.926 169.1910  0.00  0.00     0.000 S
ATOM     37   O  SGN F   2      -7.866  46.991 169.3830  0.00  0.00     0.000 OA
ATOM     38   O  SGN F   2      -9.628  47.804 167.9210  0.00  0.00     0.000 OA
ATOM     39   O  SGN F   2      -8.560  49.301 169.4830  0.00  0.00     0.000 OA
BRANCH 20 40
ATOM     40  O4  IDS F   3     -14.460  47.552 172.1310  0.00  0.00     0.000 O
BRANCH 40 44
ATOM     41  C1  IDS F   3     -16.953  49.895 172.8300  0.00  0.00     0.000 C
ATOM     42  C2  IDS F   3     -16.892  49.241 171.4720  0.00  0.00     0.000 C
ATOM     43  C3  IDS F   3     -15.452  49.301 170.8320  0.00  0.00     0.000 C
ATOM     44  C4  IDS F   3     -14.374  48.940 171.8360  0.00  0.00     0.000 C
ATOM     45  C5  IDS F   3     -14.583  49.758 173.1100  0.00  0.00     0.000 C
ATOM     46  O5  IDS F   3     -15.853  49.484 173.6560  0.00  0.00     0.000 O
ATOM     47   O  IDS F   3     -18.035  46.876 169.5810  0.00  0.00     0.000 OA
ATOM     48   O  IDS F   3     -18.882  46.061 171.6340  0.00  0.00     0.000 OA
ATOM     49   O  IDS F   3     -19.484  48.245 170.8170  0.00  0.00     0.000 OA
ATOM     50   O  IDS F   3     -17.325  47.882 171.6000  0.00  0.00     0.000 O
ATOM     51   S  IDS F   3     -18.506  47.222 170.8730  0.00  0.00     0.000 S
ATOM     52   O  IDS F   3     -15.182  50.628 170.3900  0.00  0.00     0.000 O
ATOM     54  HD  IDS F   3     -15.919  50.180 170.4680  0.00  0.00     0.000 HD
ATOM     54   C  IDS F   3     -13.492  49.596 174.1740  0.00  0.00     0.000 C
ATOM     55   O  IDS F   3     -13.645  48.841 175.1310  0.00  0.00     0.000 OA
ATOM     56   O  IDS F   3     -12.421  50.212 174.0940  0.00  0.00     0.000 OA
BRANCH 41 57
ATOM     57  O4  SGN F   4     -17.000  51.281 172.6580  0.00  0.00     0.000 O
BRANCH 57 61
ATOM     58  C1  SGN F   4     -18.155  54.395 175.0490  0.00  0.00     0.000 C
ATOM     59  C2  SGN F   4     -16.642  54.150 174.9370  0.00  0.00     0.000 C
ATOM     60  C3  SGN F   4     -16.309  53.266 173.7480  0.00  0.00     0.000 C
ATOM     61  C4  SGN F   4     -17.153  51.996 173.8400  0.00  0.00     0.000 C
ATOM     62  C5  SGN F   4     -18.641  52.359 174.0090  0.00  0.00     0.000 C
ATOM     63  O5  SGN F   4     -18.830  53.170 175.1270  0.00  0.00     0.000 O
ATOM     64   N  SGN F   4     -15.921  55.407 174.8820  0.00  0.00     0.000 N
ATOM     66  HD  SGN F   4     -16.530  54.949 175.2940  0.00  0.00     0.000 HD
ATOM     66   S  SGN F   4     -15.518  56.108 176.2980  0.00  0.00     0.000 S
ATOM     67   O  SGN F   4     -16.764  56.546 176.8980  0.00  0.00     0.000 OA
ATOM     68   O  SGN F   4     -14.834  55.114 177.1220  0.00  0.00     0.000 OA
ATOM     69   O  SGN F   4     -14.680  57.213 175.8930  0.00  0.00     0.000 OA
ATOM     70   O  SGN F   4     -14.941  52.889 173.7990  0.00  0.00     0.000 O
ATOM     72  HD  SGN F   4     -15.549  52.431 174.2110  0.00  0.00     0.000 HD
ATOM     72   C  SGN F   4     -19.547  51.176 174.2360  0.00  0.00     0.000 C
ATOM     73   O  SGN F   4     -19.108  50.531 175.4090  0.00  0.00     0.000 O
ATOM     74   S  SGN F   4     -20.014  49.737 176.3940  0.00  0.00     0.000 S
ATOM     75   O  SGN F   4     -21.053  49.110 175.6460  0.00  0.00     0.000 OA
ATOM     76   O  SGN F   4     -19.163  48.759 177.0700  0.00  0.00     0.000 OA
ATOM     77   O  SGN F   4     -20.549  50.737 177.2330  0.00  0.00     0.000 OA
BRANCH 58 78
ATOM     78  O4  IDS F   5     -18.617  55.169 173.9690  0.00  0.00     0.000 O
BRANCH 78 82
ATOM     79  C1  IDS F   5     -20.252  57.346 171.7910  0.00  0.00     0.000 C
ATOM     80  C2  IDS F   5     -18.824  57.615 172.2470  0.00  0.00     0.000 C
ATOM     81  C3  IDS F   5     -18.691  57.562 173.7700  0.00  0.00     0.000 C
ATOM     82  C4  IDS F   5     -19.363  56.294 174.3370  0.00  0.00     0.000 C
ATOM     83  C5  IDS F   5     -20.782  56.167 173.7810  0.00  0.00     0.000 C
ATOM     84  O5  IDS F   5     -20.763  56.172 172.3690  0.00  0.00     0.000 O
ATOM     85   O  IDS F   5     -21.027  58.479 172.0940  0.00  0.00     0.000 OA
ATOM     86   O  IDS F   5     -18.002  56.612 171.7180  0.00  0.00     0.000 O
ATOM     87   S  IDS F   5     -16.446  56.627 171.5630  0.00  0.00     0.000 S
ATOM     88   O  IDS F   5     -15.917  57.431 172.6320  0.00  0.00     0.000 OA
ATOM     89   O  IDS F   5     -16.020  55.249 171.6550  0.00  0.00     0.000 OA
ATOM     90   O  IDS F   5     -16.209  57.224 170.2750  0.00  0.00     0.000 OA
ATOM     91   O  IDS F   5     -19.334  58.701 174.3070  0.00  0.00     0.000 O
ATOM     93  HD  IDS F   5     -20.076  58.355 174.5880  0.00  0.00     0.000 HD
ATOM     93   O  IDS F   5     -21.888  54.075 173.5750  0.00  0.00     0.000 OA
ATOM     94   O  IDS F   5     -21.833  54.875 175.4870  0.00  0.00     0.000 OA
ATOM     95   C  IDS F   5     -21.548  54.968 174.3080  0.00  0.00     0.000 C
ENDBRANCH 78 82
ENDBRANCH 58 78
ENDBRANCH 57 61
ENDBRANCH 41 57
ENDBRANCH 40 44
ENDBRANCH 20 40
ENDBRANCH 19 23
ENDBRANCH 1 19
TORSDOF 8
ENDMDL
MODEL 17
REMARK VINA RESULT:      -6.9      3.608      5.655
FFDIST PL LJ 2322 74 36 -1
ROOT
ATOM      1  C1  IDS F   1     -16.769  44.420 173.4660  0.00  0.00     0.000 C
ATOM      2  C2  IDS F   1     -15.428  44.005 172.8380  0.00  0.00     0.000 C
ATOM      3  C3  IDS F   1     -15.347  42.493 172.5180  0.00  0.00     0.000 C
ATOM      4  C4  IDS F   1     -16.672  41.891 171.9930  0.00  0.00     0.000 C
ATOM      5  C5  IDS F   1     -17.866  42.501 172.7360  0.00  0.00     0.000 C
ATOM      6  O5  IDS F   1     -17.806  43.888 172.6850  0.00  0.00     0.000 O
ATOM      7   S  IDS F   1     -13.865  44.921 170.8340  0.00  0.00     0.000 S
ATOM      8   O  IDS F   1     -13.291  43.614 170.7150  0.00  0.00     0.000 OA
ATOM      9   O  IDS F   1     -14.184  45.465 169.5460  0.00  0.00     0.000 OA
ATOM     10   O  IDS F   1     -13.082  45.816 171.6530  0.00  0.00     0.000 OA
ATOM     11   O  IDS F   1     -15.225  44.699 171.6240  0.00  0.00     0.000 O
ATOM     12   O  IDS F   1     -14.971  41.792 173.7010  0.00  0.00     0.000 O
ATOM     14  HD  IDS F   1     -15.206  40.995 173.9440  0.00  0.00     0.000 HD
ATOM     14   O  IDS F   1     -16.760  42.198 170.6240  0.00  0.00     0.000 O
ATOM     16  HD  IDS F   1     -16.995  41.400 170.8670  0.00  0.00     0.000 HD
ATOM     16   O  IDS F   1     -20.161  42.846 172.2070  0.00  0.00     0.000 OA
ATOM     17   O  IDS F   1     -19.480  40.875 172.0360  0.00  0.00     0.000 OA
ATOM     18   C  IDS F   1     -19.242  42.043 172.2970  0.00  0.00     0.000 C
ENDROOT
BRANCH 1 19
ATOM     19  O4  SGN F   2     -16.873  45.802 173.4340  0.00  0.00     0.000 O
BRANCH 19 23
ATOM     20  C1  SGN F   2     -16.795  49.177 175.8830  0.00  0.00     0.000 C
ATOM     21  C2  SGN F   2     -15.491  48.399 175.8030  0.00  0.00     0.000 C
ATOM     22  C3  SGN F   2     -15.434  47.557 174.5200  0.00  0.00     0.000 C
ATOM     23  C4  SGN F   2     -16.691  46.631 174.5620  0.00  0.00     0.000 C
ATOM     24  C5  SGN F   2     -17.879  47.534 174.6150  0.00  0.00     0.000 C
ATOM     25  O5  SGN F   2     -17.868  48.283 175.7870  0.00  0.00     0.000 O
ATOM     26   N  SGN F   2     -14.360  49.335 176.0040  0.00  0.00     0.000 N
ATOM     28  HD  SGN F   2     -13.595  49.470 175.6190  0.00  0.00     0.000 HD
ATOM     28   S  SGN F   2     -13.952  49.732 177.5800  0.00  0.00     0.000 S
ATOM     29   O  SGN F   2     -15.168  50.118 178.2590  0.00  0.00     0.000 OA
ATOM     30   O  SGN F   2     -13.376  48.523 178.1250  0.00  0.00     0.000 OA
ATOM     31   O  SGN F   2     -12.993  50.773 177.5050  0.00  0.00     0.000 OA
ATOM     32   O  SGN F   2     -14.240  46.784 174.5450  0.00  0.00     0.000 O
ATOM     34  HD  SGN F   2     -13.476  46.919 174.1600  0.00  0.00     0.000 HD
ATOM     34   C  SGN F   2     -19.168  46.783 174.6040  0.00  0.00     0.000 C
ATOM     35   O  SGN F   2     -19.080  45.895 175.6670  0.00  0.00     0.000 O
ATOM     36   S  SGN F   2     -20.193  45.012 176.2220  0.00  0.00     0.000 S
ATOM     37   O  SGN F   2     -19.657  43.675 176.1840  0.00  0.00     0.000 OA
ATOM     38   O  SGN F   2     -20.428  45.527 177.5530  0.00  0.00     0.000 OA
ATOM     39   O  SGN F   2     -21.348  45.182 175.3500  0.00  0.00     0.000 OA
BRANCH 20 40
ATOM     40  O4  IDS F   3     -16.879  50.149 174.8750  0.00  0.00     0.000 O
BRANCH 40 44
ATOM     41  C1  IDS F   3     -17.373  53.296 173.4440  0.00  0.00     0.000 C
ATOM     42  C2  IDS F   3     -17.074  53.176 174.9180  0.00  0.00     0.000 C
ATOM     43  C3  IDS F   3     -17.997  52.123 175.6420  0.00  0.00     0.000 C
ATOM     44  C4  IDS F   3     -18.121  50.839 174.8430  0.00  0.00     0.000 C
ATOM     45  C5  IDS F   3     -18.489  51.182 173.4000  0.00  0.00     0.000 C
ATOM     46  O5  IDS F   3     -17.495  52.004 172.8300  0.00  0.00     0.000 O
ATOM     47   O  IDS F   3     -14.792  53.302 177.2100  0.00  0.00     0.000 OA
ATOM     48   O  IDS F   3     -13.343  53.200 175.3430  0.00  0.00     0.000 OA
ATOM     49   O  IDS F   3     -14.958  54.974 175.5720  0.00  0.00     0.000 OA
ATOM     50   O  IDS F   3     -15.695  52.825 175.0760  0.00  0.00     0.000 O
ATOM     51   S  IDS F   3     -14.626  53.622 175.8380  0.00  0.00     0.000 S
ATOM     52   O  IDS F   3     -19.311  52.655 175.7810  0.00  0.00     0.000 O
ATOM     54  HD  IDS F   3     -18.531  53.031 175.7500  0.00  0.00     0.000 HD
ATOM     54   C  IDS F   3     -18.776  49.978 172.4960  0.00  0.00     0.000 C
ATOM     55   O  IDS F   3     -17.920  49.538 171.7330  0.00  0.00     0.000 OA
ATOM     56   O  IDS F   3     -19.875  49.407 172.5170  0.00  0.00     0.000 OA
BRANCH 41 57
ATOM     57  O4  SGN F   4     -18.524  54.072 173.2820  0.00  0.00     0.000 O
BRANCH 57 61
ATOM     58  C1  SGN F   4     -19.864  56.783 170.5240  0.00  0.00     0.000 C
ATOM     59  C2  SGN F   4     -20.212  55.310 170.2530  0.00  0.00     0.000 C
ATOM     60  C3  SGN F   4     -20.032  54.459 171.4980  0.00  0.00     0.000 C
ATOM     61  C4  SGN F   4     -18.623  54.689 172.0400  0.00  0.00     0.000 C
ATOM     62  C5  SGN F   4     -18.362  56.198 172.2160  0.00  0.00     0.000 C
ATOM     63  O5  SGN F   4     -18.556  56.879 171.0150  0.00  0.00     0.000 O
ATOM     64   N  SGN F   4     -21.554  55.190 169.7180  0.00  0.00     0.000 N
ATOM     66  HD  SGN F   4     -20.795  55.602 169.6580  0.00  0.00     0.000 HD
ATOM     66   S  SGN F   4     -21.739  55.339 168.1050  0.00  0.00     0.000 S
ATOM     67   O  SGN F   4     -21.457  56.729 167.7960  0.00  0.00     0.000 OA
ATOM     68   O  SGN F   4     -20.800  54.431 167.4510  0.00  0.00     0.000 OA
ATOM     69   O  SGN F   4     -23.128  54.997 167.8980  0.00  0.00     0.000 OA
ATOM     70   O  SGN F   4     -20.155  53.085 171.1620  0.00  0.00     0.000 O
ATOM     72  HD  SGN F   4     -19.395  53.497 171.1020  0.00  0.00     0.000 HD
ATOM     72   C  SGN F   4     -16.953  56.541 172.6270  0.00  0.00     0.000 C
ATOM     73   O  SGN F   4     -16.093  56.053 171.6240  0.00  0.00     0.000 O
ATOM     74   S  SGN F   4     -14.721  56.675 171.2320  0.00  0.00     0.000 S
ATOM     75   O  SGN F   4     -14.124  57.225 172.4030  0.00  0.00     0.000 OA
ATOM     76   O  SGN F   4     -13.910  55.602 170.6580  0.00  0.00     0.000 OA
ATOM     77   O  SGN F   4     -15.068  57.703 170.3300  0.00  0.00     0.000 OA
BRANCH 58 78
ATOM     78  O4  IDS F   5     -20.791  57.360 171.4110  0.00  0.00     0.000 O
BRANCH 78 82
ATOM     79  C1  IDS F   5     -22.884  59.432 173.2750  0.00  0.00     0.000 C
ATOM     80  C2  IDS F   5     -23.453  58.433 172.2780  0.00  0.00     0.000 C
ATOM     81  C3  IDS F   5     -22.804  58.568 170.8990  0.00  0.00     0.000 C
ATOM     82  C4  IDS F   5     -21.265  58.616 171.0180  0.00  0.00     0.000 C
ATOM     83  C5  IDS F   5     -20.859  59.661 172.0590  0.00  0.00     0.000 C
ATOM     84  O5  IDS F   5     -21.480  59.393 173.2990  0.00  0.00     0.000 O
ATOM     85   O  IDS F   5     -23.382  60.706 172.9490  0.00  0.00     0.000 OA
ATOM     86   O  IDS F   5     -23.177  57.143 172.7480  0.00  0.00     0.000 O
ATOM     87   S  IDS F   5     -23.851  55.799 172.3200  0.00  0.00     0.000 S
ATOM     88   O  IDS F   5     -24.249  55.939 170.9440  0.00  0.00     0.000 OA
ATOM     89   O  IDS F   5     -22.848  54.773 172.4960  0.00  0.00     0.000 OA
ATOM     90   O  IDS F   5     -24.985  55.660 173.1940  0.00  0.00     0.000 OA
ATOM     91   O  IDS F   5     -23.256  59.774 170.3160  0.00  0.00     0.000 O
ATOM     93  HD  IDS F   5     -22.568  60.286 170.4390  0.00  0.00     0.000 HD
ATOM     93   O  IDS F   5     -18.816  59.532 173.2640  0.00  0.00     0.000 OA
ATOM     94   O  IDS F   5     -18.665  60.225 171.3160  0.00  0.00     0.000 OA
ATOM     95   C  IDS F   5     -19.359  59.816 172.2270  0.00  0.00     0.000 C
ENDBRANCH 78 82
ENDBRANCH 58 78
ENDBRANCH 57 61
ENDBRANCH 41 57
ENDBRANCH 40 44
ENDBRANCH 20 40
ENDBRANCH 19 23
ENDBRANCH 1 19
TORSDOF 8
ENDMDL
MODEL 18
REMARK VINA RESULT:      -6.8      4.381     11.561
FFDIST PL LJ 2322 74 36 -1
ROOT
ATOM      1  C1  IDS F   1     -21.270  45.951 171.8500  0.00  0.00     0.000 C
ATOM      2  C2  IDS F   1     -21.573  44.888 170.7820  0.00  0.00     0.000 C
ATOM      3  C3  IDS F   1     -20.893  43.527 171.0660  0.00  0.00     0.000 C
ATOM      4  C4  IDS F   1     -20.865  43.140 172.5630  0.00  0.00     0.000 C
ATOM      5  C5  IDS F   1     -20.600  44.377 173.4280  0.00  0.00     0.000 C
ATOM      6  O5  IDS F   1     -21.501  45.386 173.1130  0.00  0.00     0.000 O
ATOM      7   S  IDS F   1     -23.790  43.973 169.5380  0.00  0.00     0.000 S
ATOM      8   O  IDS F   1     -23.104  42.746 169.2670  0.00  0.00     0.000 OA
ATOM      9   O  IDS F   1     -25.121  43.728 170.0140  0.00  0.00     0.000 OA
ATOM     10   O  IDS F   1     -23.742  44.909 168.4390  0.00  0.00     0.000 OA
ATOM     11   O  IDS F   1     -22.965  44.651 170.7130  0.00  0.00     0.000 O
ATOM     12   O  IDS F   1     -19.551  43.576 170.5880  0.00  0.00     0.000 O
ATOM     14  HD  IDS F   1     -18.855  43.177 170.9150  0.00  0.00     0.000 HD
ATOM     14   O  IDS F   1     -22.124  42.601 172.8810  0.00  0.00     0.000 O
ATOM     16  HD  IDS F   1     -21.429  42.202 173.2090  0.00  0.00     0.000 HD
ATOM     16   O  IDS F   1     -21.112  44.985 175.6720  0.00  0.00     0.000 OA
ATOM     17   O  IDS F   1     -20.062  43.191 175.4390  0.00  0.00     0.000 OA
ATOM     18   C  IDS F   1     -20.592  44.164 174.9290  0.00  0.00     0.000 C
ENDROOT
BRANCH 1 19
ATOM     19  O4  SGN F   2     -22.145  47.015 171.6890  0.00  0.00     0.000 O
BRANCH 19 23
ATOM     20  C1  SGN F   2     -19.847  50.439 172.3080  0.00  0.00     0.000 C
ATOM     21  C2  SGN F   2     -20.987  50.231 173.2920  0.00  0.00     0.000 C
ATOM     22  C3  SGN F   2     -21.401  48.754 173.3480  0.00  0.00     0.000 C
ATOM     23  C4  SGN F   2     -21.786  48.366 171.8840  0.00  0.00     0.000 C
ATOM     24  C5  SGN F   2     -20.569  48.600 171.0520  0.00  0.00     0.000 C
ATOM     25  O5  SGN F   2     -20.231  49.950 171.0530  0.00  0.00     0.000 O
ATOM     26   N  SGN F   2     -20.616  50.840 174.5920  0.00  0.00     0.000 N
ATOM     28  HD  SGN F   2     -20.664  50.597 175.4220  0.00  0.00     0.000 HD
ATOM     28   S  SGN F   2     -20.847  52.490 174.7710  0.00  0.00     0.000 S
ATOM     29   O  SGN F   2     -20.254  53.138 173.6230  0.00  0.00     0.000 OA
ATOM     30   O  SGN F   2     -22.282  52.657 174.8180  0.00  0.00     0.000 OA
ATOM     31   O  SGN F   2     -20.243  52.858 175.9990  0.00  0.00     0.000 OA
ATOM     32   O  SGN F   2     -22.527  48.636 174.2100  0.00  0.00     0.000 O
ATOM     34  HD  SGN F   2     -22.574  48.394 175.0400  0.00  0.00     0.000 HD
ATOM     34   C  SGN F   2     -20.772  48.217 169.6240  0.00  0.00     0.000 C
ATOM     35   O  SGN F   2     -21.889  48.928 169.2110  0.00  0.00     0.000 O
ATOM     36   S  SGN F   2     -22.429  49.049 167.7900  0.00  0.00     0.000 S
ATOM     37   O  SGN F   2     -23.802  48.621 167.8800  0.00  0.00     0.000 OA
ATOM     38   O  SGN F   2     -22.256  50.446 167.4590  0.00  0.00     0.000 OA
ATOM     39   O  SGN F   2     -21.620  48.175 166.9500  0.00  0.00     0.000 OA
BRANCH 20 40
ATOM     40  O4  IDS F   3     -18.672  49.808 172.7390  0.00  0.00     0.000 O
BRANCH 40 44
ATOM     41  C1  IDS F   3     -15.336  49.326 173.6530  0.00  0.00     0.000 C
ATOM     42  C2  IDS F   3     -15.959  50.695 173.7660  0.00  0.00     0.000 C
ATOM     43  C3  IDS F   3     -16.701  51.137 172.4470  0.00  0.00     0.000 C
ATOM     44  C4  IDS F   3     -17.557  50.019 171.8820  0.00  0.00     0.000 C
ATOM     45  C5  IDS F   3     -16.719  48.744 171.7930  0.00  0.00     0.000 C
ATOM     46  O5  IDS F   3     -16.250  48.384 173.0730  0.00  0.00     0.000 O
ATOM     47   O  IDS F   3     -17.390  52.838 175.7260  0.00  0.00     0.000 OA
ATOM     48   O  IDS F   3     -17.561  50.957 177.1520  0.00  0.00     0.000 OA
ATOM     49   O  IDS F   3     -15.421  51.736 176.3680  0.00  0.00     0.000 OA
ATOM     50   O  IDS F   3     -16.866  50.694 174.8740  0.00  0.00     0.000 O
ATOM     51   S  IDS F   3     -16.808  51.603 176.1100  0.00  0.00     0.000 S
ATOM     52   O  IDS F   3     -15.742  51.471 171.4490  0.00  0.00     0.000 O
ATOM     54  HD  IDS F   3     -15.721  51.514 172.3130  0.00  0.00     0.000 HD
ATOM     54   C  IDS F   3     -17.412  47.554 171.1190  0.00  0.00     0.000 C
ATOM     55   O  IDS F   3     -17.938  46.665 171.7840  0.00  0.00     0.000 OA
ATOM     56   O  IDS F   3     -17.472  47.461 169.8860  0.00  0.00     0.000 OA
BRANCH 41 57
ATOM     57  O4  SGN F   4     -14.148  49.433 172.9250  0.00  0.00     0.000 O
BRANCH 57 61
ATOM     58  C1  SGN F   4     -12.947  45.557 173.4600  0.00  0.00     0.000 C
ATOM     59  C2  SGN F   4     -12.725  46.507 174.6470  0.00  0.00     0.000 C
ATOM     60  C3  SGN F   4     -13.547  47.776 174.5050  0.00  0.00     0.000 C
ATOM     61  C4  SGN F   4     -13.255  48.390 173.1380  0.00  0.00     0.000 C
ATOM     62  C5  SGN F   4     -13.451  47.337 172.0310  0.00  0.00     0.000 C
ATOM     63  O5  SGN F   4     -12.651  46.218 172.2610  0.00  0.00     0.000 O
ATOM     64   N  SGN F   4     -13.001  45.834 175.9020  0.00  0.00     0.000 N
ATOM     66  HD  SGN F   4     -12.589  45.788 175.1410  0.00  0.00     0.000 HD
ATOM     66   S  SGN F   4     -11.786  44.988 176.5870  0.00  0.00     0.000 S
ATOM     67   O  SGN F   4     -11.555  43.847 175.7210  0.00  0.00     0.000 OA
ATOM     68   O  SGN F   4     -10.615  45.857 176.6720  0.00  0.00     0.000 OA
ATOM     69   O  SGN F   4     -12.331  44.608 177.8710  0.00  0.00     0.000 OA
ATOM     70   O  SGN F   4     -13.159  48.713 175.5000  0.00  0.00     0.000 O
ATOM     72  HD  SGN F   4     -12.748  48.667 174.7390  0.00  0.00     0.000 HD
ATOM     72   C  SGN F   4     -13.065  47.805 170.6520  0.00  0.00     0.000 C
ATOM     73   O  SGN F   4     -11.702  48.159 170.6950  0.00  0.00     0.000 O
ATOM     74   S  SGN F   4     -10.707  48.062 169.5020  0.00  0.00     0.000 S
ATOM     75   O  SGN F   4     -11.420  48.331 168.2970  0.00  0.00     0.000 OA
ATOM     76   O  SGN F   4      -9.651  49.045 169.7410  0.00  0.00     0.000 OA
ATOM     77   O  SGN F   4     -10.283  46.718 169.5310  0.00  0.00     0.000 OA
BRANCH 58 78
ATOM     78  O4  IDS F   5     -14.262  45.057 173.4610  0.00  0.00     0.000 O
BRANCH 78 82
ATOM     79  C1  IDS F   5     -17.216  43.236 173.1210  0.00  0.00     0.000 C
ATOM     80  C2  IDS F   5     -16.561  43.426 174.4820  0.00  0.00     0.000 C
ATOM     81  C3  IDS F   5     -15.082  43.034 174.4640  0.00  0.00     0.000 C
ATOM     82  C4  IDS F   5     -14.358  43.676 173.2620  0.00  0.00     0.000 C
ATOM     83  C5  IDS F   5     -15.143  43.400 171.9780  0.00  0.00     0.000 C
ATOM     84  O5  IDS F   5     -16.474  43.857 172.1030  0.00  0.00     0.000 O
ATOM     85   O  IDS F   5     -17.382  41.857 172.9040  0.00  0.00     0.000 OA
ATOM     86   O  IDS F   5     -16.632  44.784 174.8150  0.00  0.00     0.000 O
ATOM     87   S  IDS F   5     -16.462  45.438 176.2250  0.00  0.00     0.000 S
ATOM     88   O  IDS F   5     -15.551  44.613 176.9730  0.00  0.00     0.000 OA
ATOM     89   O  IDS F   5     -15.932  46.762 175.9920  0.00  0.00     0.000 OA
ATOM     90   O  IDS F   5     -17.783  45.433 176.7970  0.00  0.00     0.000 OA
ATOM     91   O  IDS F   5     -15.001  41.627 174.3510  0.00  0.00     0.000 O
ATOM     93  HD  IDS F   5     -14.800  41.540 173.5130  0.00  0.00     0.000 HD
ATOM     93   O  IDS F   5     -15.026  44.826 170.0810  0.00  0.00     0.000 OA
ATOM     94   O  IDS F   5     -13.416  43.545 170.3400  0.00  0.00     0.000 OA
ATOM     95   C  IDS F   5     -14.494  43.957 170.7240  0.00  0.00     0.000 C
ENDBRANCH 78 82
ENDBRANCH 58 78
ENDBRANCH 57 61
ENDBRANCH 41 57
ENDBRANCH 40 44
ENDBRANCH 20 40
ENDBRANCH 19 23
ENDBRANCH 1 19
TORSDOF 8
ENDMDL
MODEL 19
REMARK VINA RESULT:      -6.7      4.714     12.949
FFDIST PL LJ 2322 74 36 -1
ROOT
ATOM      1  C1  IDS F   1     -20.535  47.242 174.5570  0.00  0.00     0.000 C
ATOM      2  C2  IDS F   1     -19.188  47.957 174.3600  0.00  0.00     0.000 C
ATOM      3  C3  IDS F   1     -19.340  49.460 174.0230  0.00  0.00     0.000 C
ATOM      4  C4  IDS F   1     -20.489  50.161 174.7840  0.00  0.00     0.000 C
ATOM      5  C5  IDS F   1     -21.699  49.228 174.8980  0.00  0.00     0.000 C
ATOM      6  O5  IDS F   1     -21.316  48.006 175.4370  0.00  0.00     0.000 O
ATOM      7   S  IDS F   1     -16.850  48.086 175.7080  0.00  0.00     0.000 S
ATOM      8   O  IDS F   1     -16.580  49.341 175.0750  0.00  0.00     0.000 OA
ATOM      9   O  IDS F   1     -16.558  48.140 177.1110  0.00  0.00     0.000 OA
ATOM     10   O  IDS F   1     -16.231  46.964 175.0400  0.00  0.00     0.000 OA
ATOM     11   O  IDS F   1     -18.415  47.871 175.5400  0.00  0.00     0.000 O
ATOM     12   O  IDS F   1     -19.577  49.595 172.6240  0.00  0.00     0.000 O
ATOM     14  HD  IDS F   1     -20.056  50.194 172.2210  0.00  0.00     0.000 HD
ATOM     14   O  IDS F   1     -20.011  50.476 176.0690  0.00  0.00     0.000 O
ATOM     16  HD  IDS F   1     -20.490  51.075 175.6660  0.00  0.00     0.000 HD
ATOM     16   O  IDS F   1     -23.515  49.029 176.4250  0.00  0.00     0.000 OA
ATOM     17   O  IDS F   1     -23.279  50.911 175.5410  0.00  0.00     0.000 OA
ATOM     18   C  IDS F   1     -22.894  49.759 175.6650  0.00  0.00     0.000 C
ENDROOT
BRANCH 1 19
ATOM     19  O4  SGN F   2     -20.307  46.007 175.1470  0.00  0.00     0.000 O
BRANCH 19 23
ATOM     20  C1  SGN F   2     -17.844  43.307 173.1390  0.00  0.00     0.000 C
ATOM     21  C2  SGN F   2     -19.093  43.735 172.3860  0.00  0.00     0.000 C
ATOM     22  C3  SGN F   2     -19.617  45.079 172.9130  0.00  0.00     0.000 C
ATOM     23  C4  SGN F   2     -19.873  44.866 174.4390  0.00  0.00     0.000 C
ATOM     24  C5  SGN F   2     -18.561  44.477 175.0370  0.00  0.00     0.000 C
ATOM     25  O5  SGN F   2     -18.128  43.264 174.5100  0.00  0.00     0.000 O
ATOM     26   N  SGN F   2     -18.818  43.684 170.9300  0.00  0.00     0.000 N
ATOM     28  HD  SGN F   2     -18.970  44.204 170.2550  0.00  0.00     0.000 HD
ATOM     28   S  SGN F   2     -18.945  42.196 170.1690  0.00  0.00     0.000 S
ATOM     29   O  SGN F   2     -18.189  41.243 170.9490  0.00  0.00     0.000 OA
ATOM     30   O  SGN F   2     -20.361  41.906 170.1650  0.00  0.00     0.000 OA
ATOM     31   O  SGN F   2     -18.449  42.366 168.8520  0.00  0.00     0.000 OA
ATOM     32   O  SGN F   2     -20.833  45.381 172.2380  0.00  0.00     0.000 O
ATOM     34  HD  SGN F   2     -20.985  45.902 171.5630  0.00  0.00     0.000 HD
ATOM     34   C  SGN F   2     -18.640  44.292 176.5150  0.00  0.00     0.000 C
ATOM     35   O  SGN F   2     -19.653  43.365 176.7120  0.00  0.00     0.000 O
ATOM     36   S  SGN F   2     -20.030  42.679 178.0210  0.00  0.00     0.000 S
ATOM     37   O  SGN F   2     -21.432  42.961 178.1940  0.00  0.00     0.000 OA
ATOM     38   O  SGN F   2     -19.721  41.284 177.7970  0.00  0.00     0.000 OA
ATOM     39   O  SGN F   2     -19.203  43.269 179.0660  0.00  0.00     0.000 OA
BRANCH 20 40
ATOM     40  O4  IDS F   3     -16.769  44.173 172.8910  0.00  0.00     0.000 O
BRANCH 40 44
ATOM     41  C1  IDS F   3     -13.738  45.757 172.1870  0.00  0.00     0.000 C
ATOM     42  C2  IDS F   3     -14.785  45.622 171.1110  0.00  0.00     0.000 C
ATOM     43  C3  IDS F   3     -15.332  44.149 170.9760  0.00  0.00     0.000 C
ATOM     44  C4  IDS F   3     -15.631  43.533 172.3300  0.00  0.00     0.000 C
ATOM     45  C5  IDS F   3     -14.421  43.725 173.2440  0.00  0.00     0.000 C
ATOM     46  O5  IDS F   3     -14.144  45.099 173.3960  0.00  0.00     0.000 O
ATOM     47   O  IDS F   3     -17.225  47.064 169.5470  0.00  0.00     0.000 OA
ATOM     48   O  IDS F   3     -17.068  48.595 171.3440  0.00  0.00     0.000 OA
ATOM     49   O  IDS F   3     -15.188  48.173 169.8980  0.00  0.00     0.000 OA
ATOM     50   O  IDS F   3     -15.856  46.528 171.4000  0.00  0.00     0.000 O
ATOM     51   S  IDS F   3     -16.365  47.665 170.5010  0.00  0.00     0.000 S
ATOM     52   O  IDS F   3     -14.347  43.330 170.3540  0.00  0.00     0.000 O
ATOM     54  HD  IDS F   3     -14.526  44.175 170.2890  0.00  0.00     0.000 HD
ATOM     54   C  IDS F   3     -14.523  43.040 174.6110  0.00  0.00     0.000 C
ATOM     55   O  IDS F   3     -14.855  43.669 175.6130  0.00  0.00     0.000 OA
ATOM     56   O  IDS F   3     -14.284  41.833 174.7440  0.00  0.00     0.000 OA
BRANCH 41 57
ATOM     57  O4  SGN F   4     -12.524  45.266 171.6970  0.00  0.00     0.000 O
BRANCH 57 61
ATOM     58  C1  SGN F   4      -8.702  46.318 172.7130  0.00  0.00     0.000 C
ATOM     59  C2  SGN F   4      -9.089  44.850 172.9510  0.00  0.00     0.000 C
ATOM     60  C3  SGN F   4     -10.348  44.476 172.1880  0.00  0.00     0.000 C
ATOM     61  C4  SGN F   4     -11.441  45.484 172.5380  0.00  0.00     0.000 C
ATOM     62  C5  SGN F   4     -10.927  46.920 172.3200  0.00  0.00     0.000 C
ATOM     63  O5  SGN F   4      -9.770  47.153 173.0640  0.00  0.00     0.000 O
ATOM     64   N  SGN F   4      -7.986  43.969 172.6180  0.00  0.00     0.000 N
ATOM     66  HD  SGN F   4      -8.227  44.683 173.0440  0.00  0.00     0.000 HD
ATOM     66   S  SGN F   4      -6.879  43.675 173.7780  0.00  0.00     0.000 S
ATOM     67   O  SGN F   4      -6.166  44.923 173.9780  0.00  0.00     0.000 OA
ATOM     68   O  SGN F   4      -7.583  43.247 174.9850  0.00  0.00     0.000 OA
ATOM     69   O  SGN F   4      -6.046  42.650 173.1900  0.00  0.00     0.000 OA
ATOM     70   O  SGN F   4     -10.791  43.189 172.5960  0.00  0.00     0.000 O
ATOM     72  HD  SGN F   4     -11.031  43.904 173.0210  0.00  0.00     0.000 HD
ATOM     72   C  SGN F   4     -11.886  47.997 172.7560  0.00  0.00     0.000 C
ATOM     73   O  SGN F   4     -12.126  47.813 174.1330  0.00  0.00     0.000 O
ATOM     74   S  SGN F   4     -12.463  48.943 175.1480  0.00  0.00     0.000 S
ATOM     75   O  SGN F   4     -13.224  49.942 174.4740  0.00  0.00     0.000 OA
ATOM     76   O  SGN F   4     -13.216  48.329 176.2410  0.00  0.00     0.000 OA
ATOM     77   O  SGN F   4     -11.199  49.451 175.5120  0.00  0.00     0.000 OA
BRANCH 58 78
ATOM     78  O4  IDS F   5      -8.308  46.521 171.3770  0.00  0.00     0.000 O
BRANCH 78 82
ATOM     79  C1  IDS F   5      -6.974  47.613 168.3480  0.00  0.00     0.000 C
ATOM     80  C2  IDS F   5      -6.488  46.328 169.0030  0.00  0.00     0.000 C
ATOM     81  C3  IDS F   5      -6.087  46.547 170.4630  0.00  0.00     0.000 C
ATOM     82  C4  IDS F   5      -7.179  47.331 171.2220  0.00  0.00     0.000 C
ATOM     83  C5  IDS F   5      -7.557  48.586 170.4320  0.00  0.00     0.000 C
ATOM     84  O5  IDS F   5      -7.961  48.244 169.1230  0.00  0.00     0.000 O
ATOM     85   O  IDS F   5      -5.857  48.437 168.1220  0.00  0.00     0.000 OA
ATOM     86   O  IDS F   5      -7.543  45.407 168.9900  0.00  0.00     0.000 O
ATOM     87   S  IDS F   5      -7.468  43.857 169.1820  0.00  0.00     0.000 S
ATOM     88   O  IDS F   5      -6.353  43.586 170.0510  0.00  0.00     0.000 OA
ATOM     89   O  IDS F   5      -8.727  43.463 169.7710  0.00  0.00     0.000 OA
ATOM     90   O  IDS F   5      -7.255  43.331 167.8590  0.00  0.00     0.000 OA
ATOM     91   O  IDS F   5      -4.888  47.295 170.4830  0.00  0.00     0.000 O
ATOM     93  HD  IDS F   5      -5.187  48.082 170.6840  0.00  0.00     0.000 HD
ATOM     93   O  IDS F   5      -9.690  49.616 170.6230  0.00  0.00     0.000 OA
ATOM     94   O  IDS F   5      -8.367  50.000 172.1730  0.00  0.00     0.000 OA
ATOM     95   C  IDS F   5      -8.601  49.452 171.1120  0.00  0.00     0.000 C
ENDBRANCH 78 82
ENDBRANCH 58 78
ENDBRANCH 57 61
ENDBRANCH 41 57
ENDBRANCH 40 44
ENDBRANCH 20 40
ENDBRANCH 19 23
ENDBRANCH 1 19
TORSDOF 8
ENDMDL
MODEL 20
REMARK VINA RESULT:      -6.6      3.971     12.772
FFDIST PL LJ 2322 74 36 -1
ROOT
ATOM      1  C1  IDS F   1     -21.073  49.946 172.3100  0.00  0.00     0.000 C
ATOM      2  C2  IDS F   1     -20.480  50.994 173.2660  0.00  0.00     0.000 C
ATOM      3  C3  IDS F   1     -19.779  52.162 172.5300  0.00  0.00     0.000 C
ATOM      4  C4  IDS F   1     -20.494  52.607 171.2330  0.00  0.00     0.000 C
ATOM      5  C5  IDS F   1     -21.045  51.389 170.4840  0.00  0.00     0.000 C
ATOM      6  O5  IDS F   1     -21.826  50.614 171.3330  0.00  0.00     0.000 O
ATOM      7   S  IDS F   1     -21.357  52.356 175.4280  0.00  0.00     0.000 S
ATOM      8   O  IDS F   1     -20.375  53.363 175.1640  0.00  0.00     0.000 OA
ATOM      9   O  IDS F   1     -22.630  52.941 175.7370  0.00  0.00     0.000 OA
ATOM     10   O  IDS F   1     -20.927  51.380 176.4030  0.00  0.00     0.000 OA
ATOM     11   O  IDS F   1     -21.502  51.558 174.0620  0.00  0.00     0.000 O
ATOM     12   O  IDS F   1     -18.451  51.763 172.1980  0.00  0.00     0.000 O
ATOM     14  HD  IDS F   1     -17.983  51.997 171.5080  0.00  0.00     0.000 HD
ATOM     14   O  IDS F   1     -21.555  53.452 171.6070  0.00  0.00     0.000 O
ATOM     16  HD  IDS F   1     -21.086  53.685 170.9170  0.00  0.00     0.000 HD
ATOM     16   O  IDS F   1     -22.836  51.040 168.9540  0.00  0.00     0.000 OA
ATOM     17   O  IDS F   1     -21.452  52.510 168.4060  0.00  0.00     0.000 OA
ATOM     18   C  IDS F   1     -21.819  51.670 169.2110  0.00  0.00     0.000 C
ENDROOT
BRANCH 1 19
ATOM     19  O4  SGN F   2     -21.930  49.120 173.0220  0.00  0.00     0.000 O
BRANCH 19 23
ATOM     20  C1  SGN F   2     -20.320  45.273 172.9910  0.00  0.00     0.000 C
ATOM     21  C2  SGN F   2     -21.391  45.541 171.9460  0.00  0.00     0.000 C
ATOM     22  C3  SGN F   2     -21.516  47.044 171.6620  0.00  0.00     0.000 C
ATOM     23  C4  SGN F   2     -21.832  47.712 173.0380  0.00  0.00     0.000 C
ATOM     24  C5  SGN F   2     -20.690  47.382 173.9400  0.00  0.00     0.000 C
ATOM     25  O5  SGN F   2     -20.615  46.008 174.1470  0.00  0.00     0.000 O
ATOM     26   N  SGN F   2     -21.131  44.686 170.7620  0.00  0.00     0.000 N
ATOM     28  HD  SGN F   2     -21.125  44.807 169.9050  0.00  0.00     0.000 HD
ATOM     28   S  SGN F   2     -21.670  43.101 170.8170  0.00  0.00     0.000 S
ATOM     29   O  SGN F   2     -21.222  42.532 172.0680  0.00  0.00     0.000 OA
ATOM     30   O  SGN F   2     -23.111  43.200 170.7410  0.00  0.00     0.000 OA
ATOM     31   O  SGN F   2     -21.137  42.447 169.6780  0.00  0.00     0.000 OA
ATOM     32   O  SGN F   2     -22.591  47.240 170.7500  0.00  0.00     0.000 O
ATOM     34  HD  SGN F   2     -22.584  47.361 169.8930  0.00  0.00     0.000 HD
ATOM     34   C  SGN F   2     -20.828  48.005 175.2890  0.00  0.00     0.000 C
ATOM     35   O  SGN F   2     -22.064  47.585 175.7580  0.00  0.00     0.000 O
ATOM     36   S  SGN F   2     -22.630  47.780 177.1610  0.00  0.00     0.000 S
ATOM     37   O  SGN F   2     -23.896  48.439 176.9590  0.00  0.00     0.000 OA
ATOM     38   O  SGN F   2     -22.728  46.440 177.6970  0.00  0.00     0.000 OA
ATOM     39   O  SGN F   2     -21.677  48.603 177.8950  0.00  0.00     0.000 OA
BRANCH 20 40
ATOM     40  O4  IDS F   3     -19.042  45.602 172.5170  0.00  0.00     0.000 O
BRANCH 40 44
ATOM     41  C1  IDS F   3     -15.653  45.046 171.8840  0.00  0.00     0.000 C
ATOM     42  C2  IDS F   3     -16.553  43.890 172.2400  0.00  0.00     0.000 C
ATOM     43  C3  IDS F   3     -17.416  44.165 173.5310  0.00  0.00     0.000 C
ATOM     44  C4  IDS F   3     -18.028  45.553 173.5120  0.00  0.00     0.000 C
ATOM     45  C5  IDS F   3     -16.938  46.576 173.1970  0.00  0.00     0.000 C
ATOM     46  O5  IDS F   3     -16.360  46.294 171.9420  0.00  0.00     0.000 O
ATOM     47   O  IDS F   3     -18.349  41.443 171.1140  0.00  0.00     0.000 OA
ATOM     48   O  IDS F   3     -18.063  42.582 169.0600  0.00  0.00     0.000 OA
ATOM     49   O  IDS F   3     -16.168  41.806 170.3290  0.00  0.00     0.000 OA
ATOM     50   O  IDS F   3     -17.402  43.611 171.1210  0.00  0.00     0.000 O
ATOM     51   S  IDS F   3     -17.501  42.286 170.3510  0.00  0.00     0.000 S
ATOM     52   O  IDS F   3     -16.586  44.091 174.6850  0.00  0.00     0.000 O
ATOM     54  HD  IDS F   3     -16.546  43.699 173.9140  0.00  0.00     0.000 HD
ATOM     54   C  IDS F   3     -17.379  48.042 173.2700  0.00  0.00     0.000 C
ATOM     55   O  IDS F   3     -17.677  48.668 172.2550  0.00  0.00     0.000 OA
ATOM     56   O  IDS F   3     -17.457  48.636 174.3530  0.00  0.00     0.000 OA
BRANCH 41 57
ATOM     57  O4  SGN F   4     -14.541  45.026 172.7300  0.00  0.00     0.000 O
BRANCH 57 61
ATOM     58  C1  SGN F   4     -11.026  47.122 172.6820  0.00  0.00     0.000 C
ATOM     59  C2  SGN F   4     -12.014  47.478 173.8040  0.00  0.00     0.000 C
ATOM     60  C3  SGN F   4     -13.071  46.402 173.9760  0.00  0.00     0.000 C
ATOM     61  C4  SGN F   4     -13.720  46.142 172.6180  0.00  0.00     0.000 C
ATOM     62  C5  SGN F   4     -12.638  45.855 171.5590  0.00  0.00     0.000 C
ATOM     63  O5  SGN F   4     -11.723  46.905 171.4870  0.00  0.00     0.000 O
ATOM     64   N  SGN F   4     -11.310  47.733 175.0460  0.00  0.00     0.000 N
ATOM     66  HD  SGN F   4     -11.348  47.902 174.1980  0.00  0.00     0.000 HD
ATOM     66   S  SGN F   4     -10.757  49.246 175.3030  0.00  0.00     0.000 S
ATOM     67   O  SGN F   4      -9.684  49.448 174.3460  0.00  0.00     0.000 OA
ATOM     68   O  SGN F   4     -11.862  50.179 175.0910  0.00  0.00     0.000 OA
ATOM     69   O  SGN F   4     -10.281  49.197 176.6670  0.00  0.00     0.000 OA
ATOM     70   O  SGN F   4     -14.081  46.858 174.8650  0.00  0.00     0.000 O
ATOM     72  HD  SGN F   4     -14.118  47.027 174.0160  0.00  0.00     0.000 HD
ATOM     72   C  SGN F   4     -13.165  45.709 170.1550  0.00  0.00     0.000 C
ATOM     73   O  SGN F   4     -13.808  46.917 169.8210  0.00  0.00     0.000 O
ATOM     74   S  SGN F   4     -13.918  47.513 168.3880  0.00  0.00     0.000 S
ATOM     75   O  SGN F   4     -14.012  46.437 167.4580  0.00  0.00     0.000 OA
ATOM     76   O  SGN F   4     -15.110  48.360 168.3630  0.00  0.00     0.000 OA
ATOM     77   O  SGN F   4     -12.699  48.202 168.2190  0.00  0.00     0.000 OA
BRANCH 58 78
ATOM     78  O4  IDS F   5     -10.251  46.002 173.0370  0.00  0.00     0.000 O
BRANCH 78 82
ATOM     79  C1  IDS F   5      -7.751  43.580 172.8550  0.00  0.00     0.000 C
ATOM     80  C2  IDS F   5      -8.300  44.044 174.1970  0.00  0.00     0.000 C
ATOM     81  C3  IDS F   5      -8.272  45.569 174.3290  0.00  0.00     0.000 C
ATOM     82  C4  IDS F   5      -8.873  46.239 173.0750  0.00  0.00     0.000 C
ATOM     83  C5  IDS F   5      -8.222  45.660 171.8170  0.00  0.00     0.000 C
ATOM     84  O5  IDS F   5      -8.364  44.255 171.7870  0.00  0.00     0.000 O
ATOM     85   O  IDS F   5      -6.356  43.749 172.8710  0.00  0.00     0.000 OA
ATOM     86   O  IDS F   5      -9.637  43.639 174.2860  0.00  0.00     0.000 O
ATOM     87   S  IDS F   5     -10.524  43.524 175.5690  0.00  0.00     0.000 S
ATOM     88   O  IDS F   5     -10.065  44.524 176.4960  0.00  0.00     0.000 OA
ATOM     89   O  IDS F   5     -11.883  43.763 175.1390  0.00  0.00     0.000 OA
ATOM     90   O  IDS F   5     -10.294  42.191 176.0590  0.00  0.00     0.000 OA
ATOM     91   O  IDS F   5      -6.925  45.975 174.4650  0.00  0.00     0.000 O
ATOM     93  HD  IDS F   5      -6.759  46.268 173.6670  0.00  0.00     0.000 HD
ATOM     93   O  IDS F   5      -9.323  45.631 169.7120  0.00  0.00     0.000 OA
ATOM     94   O  IDS F   5      -8.518  47.456 170.2760  0.00  0.00     0.000 OA
ATOM     95   C  IDS F   5      -8.716  46.281 170.5230  0.00  0.00     0.000 C
ENDBRANCH 78 82
ENDBRANCH 58 78
ENDBRANCH 57 61
ENDBRANCH 41 57
ENDBRANCH 40 44
ENDBRANCH 20 40
ENDBRANCH 19 23
ENDBRANCH 1 19
TORSDOF 8
ENDMDL
MODEL 21
REMARK VINA RESULT:      -6.6      4.280     10.687
FFDIST PL LJ 2322 74 36 -1
ROOT
ATOM      1  C1  IDS F   1     -15.540  58.476 169.8940  0.00  0.00     0.000 C
ATOM      2  C2  IDS F   1     -14.147  58.147 169.3320  0.00  0.00     0.000 C
ATOM      3  C3  IDS F   1     -14.197  57.286 168.0470  0.00  0.00     0.000 C
ATOM      4  C4  IDS F   1     -15.355  57.652 167.0900  0.00  0.00     0.000 C
ATOM      5  C5  IDS F   1     -16.618  57.993 167.8890  0.00  0.00     0.000 C
ATOM      6  O5  IDS F   1     -16.336  58.960 168.8460  0.00  0.00     0.000 O
ATOM      7   S  IDS F   1     -11.900  59.546 168.7870  0.00  0.00     0.000 S
ATOM      8   O  IDS F   1     -11.524  58.531 167.8500  0.00  0.00     0.000 OA
ATOM      9   O  IDS F   1     -11.700  60.856 168.2410  0.00  0.00     0.000 OA
ATOM     10   O  IDS F   1     -11.298  59.372 170.0890  0.00  0.00     0.000 OA
ATOM     11   O  IDS F   1     -13.460  59.339 169.0080  0.00  0.00     0.000 O
ATOM     12   O  IDS F   1     -14.334  55.916 168.4170  0.00  0.00     0.000 O
ATOM     14  HD  IDS F   1     -14.753  55.289 167.9910  0.00  0.00     0.000 HD
ATOM     14   O  IDS F   1     -14.948  58.774 166.3470  0.00  0.00     0.000 O
ATOM     16  HD  IDS F   1     -15.367  58.148 165.9210  0.00  0.00     0.000 HD
ATOM     16   O  IDS F   1     -18.540  59.338 167.4800  0.00  0.00     0.000 OA
ATOM     17   O  IDS F   1     -18.146  57.864 166.0480  0.00  0.00     0.000 OA
ATOM     18   C  IDS F   1     -17.831  58.420 167.0880  0.00  0.00     0.000 C
ENDROOT
BRANCH 1 19
ATOM     19  O4  SGN F   2     -15.417  59.483 170.8400  0.00  0.00     0.000 O
BRANCH 19 23
ATOM     20  C1  SGN F   2     -17.179  57.997 174.3160  0.00  0.00     0.000 C
ATOM     21  C2  SGN F   2     -17.919  59.145 173.6490  0.00  0.00     0.000 C
ATOM     22  C3  SGN F   2     -17.544  59.249 172.1630  0.00  0.00     0.000 C
ATOM     23  C4  SGN F   2     -15.993  59.427 172.1280  0.00  0.00     0.000 C
ATOM     24  C5  SGN F   2     -15.415  58.221 172.7920  0.00  0.00     0.000 C
ATOM     25  O5  SGN F   2     -15.801  58.170 174.1280  0.00  0.00     0.000 O
ATOM     26   N  SGN F   2     -19.368  59.013 173.9340  0.00  0.00     0.000 N
ATOM     28  HD  SGN F   2     -20.096  59.076 173.4700  0.00  0.00     0.000 HD
ATOM     28   S  SGN F   2     -19.924  59.593 175.4050  0.00  0.00     0.000 S
ATOM     29   O  SGN F   2     -19.065  59.056 176.4360  0.00  0.00     0.000 OA
ATOM     30   O  SGN F   2     -19.822  61.030 175.2950  0.00  0.00     0.000 OA
ATOM     31   O  SGN F   2     -21.274  59.178 175.5240  0.00  0.00     0.000 OA
ATOM     32   O  SGN F   2     -18.193  60.391 171.6170  0.00  0.00     0.000 O
ATOM     34  HD  SGN F   2     -18.921  60.455 171.1520  0.00  0.00     0.000 HD
ATOM     34   C  SGN F   2     -13.923  58.226 172.7840  0.00  0.00     0.000 C
ATOM     35   O  SGN F   2     -13.559  59.429 173.3710  0.00  0.00     0.000 O
ATOM     36   S  SGN F   2     -12.156  59.867 173.7780  0.00  0.00     0.000 S
ATOM     37   O  SGN F   2     -11.953  61.125 173.1060  0.00  0.00     0.000 OA
ATOM     38   O  SGN F   2     -12.214  59.959 175.2210  0.00  0.00     0.000 OA
ATOM     39   O  SGN F   2     -11.237  58.830 173.3250  0.00  0.00     0.000 OA
BRANCH 20 40
ATOM     40  O4  IDS F   3     -17.587  56.755 173.8100  0.00  0.00     0.000 O
BRANCH 40 44
ATOM     41  C1  IDS F   3     -18.741  53.461 173.7190  0.00  0.00     0.000 C
ATOM     42  C2  IDS F   3     -19.067  54.341 174.8990  0.00  0.00     0.000 C
ATOM     43  C3  IDS F   3     -17.796  55.062 175.4900  0.00  0.00     0.000 C
ATOM     44  C4  IDS F   3     -16.920  55.646 174.3970  0.00  0.00     0.000 C
ATOM     45  C5  IDS F   3     -16.660  54.574 173.3390  0.00  0.00     0.000 C
ATOM     46  O5  IDS F   3     -17.881  54.134 172.7880  0.00  0.00     0.000 O
ATOM     47   O  IDS F   3     -21.261  56.290 176.2660  0.00  0.00     0.000 OA
ATOM     48   O  IDS F   3     -22.238  56.194 174.1120  0.00  0.00     0.000 OA
ATOM     49   O  IDS F   3     -21.871  54.194 175.4050  0.00  0.00     0.000 OA
ATOM     50   O  IDS F   3     -20.044  55.306 174.4920  0.00  0.00     0.000 O
ATOM     51   S  IDS F   3     -21.442  55.509 175.0950  0.00  0.00     0.000 S
ATOM     52   O  IDS F   3     -17.000  54.119 176.2010  0.00  0.00     0.000 O
ATOM     54  HD  IDS F   3     -17.852  54.166 176.0520  0.00  0.00     0.000 HD
ATOM     54   C  IDS F   3     -15.682  54.977 172.2310  0.00  0.00     0.000 C
ATOM     55   O  IDS F   3     -16.085  55.366 171.1370  0.00  0.00     0.000 OA
ATOM     56   O  IDS F   3     -14.457  54.933 172.4080  0.00  0.00     0.000 OA
BRANCH 41 57
ATOM     57  O4  SGN F   4     -18.185  52.268 174.1900  0.00  0.00     0.000 O
BRANCH 57 61
ATOM     58  C1  SGN F   4     -18.266  48.452 172.7130  0.00  0.00     0.000 C
ATOM     59  C2  SGN F   4     -16.910  49.173 172.6570  0.00  0.00     0.000 C
ATOM     60  C3  SGN F   4     -16.888  50.387 173.5700  0.00  0.00     0.000 C
ATOM     61  C4  SGN F   4     -18.090  51.267 173.2310  0.00  0.00     0.000 C
ATOM     62  C5  SGN F   4     -19.384  50.431 173.2590  0.00  0.00     0.000 C
ATOM     63  O5  SGN F   4     -19.294  49.346 172.3870  0.00  0.00     0.000 O
ATOM     64   N  SGN F   4     -15.829  48.258 172.9660  0.00  0.00     0.000 N
ATOM     66  HD  SGN F   4     -16.546  48.385 172.4980  0.00  0.00     0.000 HD
ATOM     66   S  SGN F   4     -15.208  47.382 171.7380  0.00  0.00     0.000 S
ATOM     67   O  SGN F   4     -16.244  46.443 171.3510  0.00  0.00     0.000 OA
ATOM     68   O  SGN F   4     -14.864  48.298 170.6520  0.00  0.00     0.000 OA
ATOM     69   O  SGN F   4     -14.067  46.730 172.3410  0.00  0.00     0.000 OA
ATOM     70   O  SGN F   4     -15.709  51.143 173.3340  0.00  0.00     0.000 O
ATOM     72  HD  SGN F   4     -16.427  51.270 172.8660  0.00  0.00     0.000 HD
ATOM     72   C  SGN F   4     -20.615  51.177 172.8140  0.00  0.00     0.000 C
ATOM     73   O  SGN F   4     -20.390  51.609 171.4920  0.00  0.00     0.000 O
ATOM     74   S  SGN F   4     -21.490  51.807 170.4090  0.00  0.00     0.000 S
ATOM     75   O  SGN F   4     -22.682  52.249 171.0530  0.00  0.00     0.000 OA
ATOM     76   O  SGN F   4     -20.985  52.796 169.4580  0.00  0.00     0.000 OA
ATOM     77   O  SGN F   4     -21.671  50.513 169.8770  0.00  0.00     0.000 OA
BRANCH 58 78
ATOM     78  O4  IDS F   5     -18.471  47.872 173.9790  0.00  0.00     0.000 O
BRANCH 78 82
ATOM     79  C1  IDS F   5     -19.491  45.979 176.7230  0.00  0.00     0.000 C
ATOM     80  C2  IDS F   5     -18.042  45.968 176.2550  0.00  0.00     0.000 C
ATOM     81  C3  IDS F   5     -17.927  45.666 174.7590  0.00  0.00     0.000 C
ATOM     82  C4  IDS F   5     -18.902  46.542 173.9450  0.00  0.00     0.000 C
ATOM     83  C5  IDS F   5     -20.307  46.447 174.5440  0.00  0.00     0.000 C
ATOM     84  O5  IDS F   5     -20.287  46.803 175.9110  0.00  0.00     0.000 O
ATOM     85   O  IDS F   5     -19.948  44.650 176.7570  0.00  0.00     0.000 OA
ATOM     86   O  IDS F   5     -17.506  47.244 176.4690  0.00  0.00     0.000 O
ATOM     87   S  IDS F   5     -15.998  47.657 176.5220  0.00  0.00     0.000 S
ATOM     88   O  IDS F   5     -15.280  46.766 175.6480  0.00  0.00     0.000 OA
ATOM     89   O  IDS F   5     -15.941  49.028 176.0680  0.00  0.00     0.000 OA
ATOM     90   O  IDS F   5     -15.616  47.482 177.8980  0.00  0.00     0.000 OA
ATOM     91   O  IDS F   5     -18.255  44.305 174.5590  0.00  0.00     0.000 O
ATOM     93  HD  IDS F   5     -19.061  44.374 174.2510  0.00  0.00     0.000 HD
ATOM     93   O  IDS F   5     -21.914  48.179 174.3050  0.00  0.00     0.000 OA
ATOM     94   O  IDS F   5     -21.655  46.963 172.6470  0.00  0.00     0.000 OA
ATOM     95   C  IDS F   5     -21.356  47.244 173.7920  0.00  0.00     0.000 C
ENDBRANCH 78 82
ENDBRANCH 58 78
ENDBRANCH 57 61
ENDBRANCH 41 57
ENDBRANCH 40 44
ENDBRANCH 20 40
ENDBRANCH 19 23
ENDBRANCH 1 19
TORSDOF 8
ENDMDL
MODEL 22
REMARK VINA RESULT:      -6.6      3.313      7.302
FFDIST PL LJ 2322 74 36 -1
ROOT
ATOM      1  C1  IDS F   1     -16.127  43.733 174.2140  0.00  0.00     0.000 C
ATOM      2  C2  IDS F   1     -16.113  43.613 175.7470  0.00  0.00     0.000 C
ATOM      3  C3  IDS F   1     -17.521  43.400 176.3540  0.00  0.00     0.000 C
ATOM      4  C4  IDS F   1     -18.437  42.484 175.5100  0.00  0.00     0.000 C
ATOM      5  C5  IDS F   1     -18.229  42.754 174.0150  0.00  0.00     0.000 C
ATOM      6  O5  IDS F   1     -16.881  42.671 173.6940  0.00  0.00     0.000 O
ATOM      7   S  IDS F   1     -14.681  42.219 177.5650  0.00  0.00     0.000 S
ATOM      8   O  IDS F   1     -15.765  42.354 178.4890  0.00  0.00     0.000 OA
ATOM      9   O  IDS F   1     -14.172  40.878 177.5550  0.00  0.00     0.000 OA
ATOM     10   O  IDS F   1     -13.652  43.217 177.7410  0.00  0.00     0.000 OA
ATOM     11   O  IDS F   1     -15.320  42.511 176.1400  0.00  0.00     0.000 O
ATOM     12   O  IDS F   1     -18.157  44.668 176.4940  0.00  0.00     0.000 O
ATOM     14  HD  IDS F   1     -19.001  44.850 176.4260  0.00  0.00     0.000 HD
ATOM     14   O  IDS F   1     -18.087  41.154 175.8030  0.00  0.00     0.000 O
ATOM     16  HD  IDS F   1     -18.931  41.336 175.7350  0.00  0.00     0.000 HD
ATOM     16   O  IDS F   1     -18.509  41.468 172.0320  0.00  0.00     0.000 OA
ATOM     17   O  IDS F   1     -20.197  41.617 173.2580  0.00  0.00     0.000 OA
ATOM     18   C  IDS F   1     -19.026  41.895 173.0540  0.00  0.00     0.000 C
ENDROOT
BRANCH 1 19
ATOM     19  O4  SGN F   2     -14.829  43.613 173.7410  0.00  0.00     0.000 O
BRANCH 19 23
ATOM     20  C1  SGN F   2     -13.727  47.238 172.0000  0.00  0.00     0.000 C
ATOM     21  C2  SGN F   2     -14.270  46.192 171.0400  0.00  0.00     0.000 C
ATOM     22  C3  SGN F   2     -15.135  45.163 171.7830  0.00  0.00     0.000 C
ATOM     23  C4  SGN F   2     -14.213  44.552 172.8870  0.00  0.00     0.000 C
ATOM     24  C5  SGN F   2     -13.783  45.688 173.7550  0.00  0.00     0.000 C
ATOM     25  O5  SGN F   2     -13.021  46.596 173.0250  0.00  0.00     0.000 O
ATOM     26   N  SGN F   2     -14.930  46.880 169.9050  0.00  0.00     0.000 N
ATOM     28  HD  SGN F   2     -15.675  46.781 169.4730  0.00  0.00     0.000 HD
ATOM     28   S  SGN F   2     -13.955  47.426 168.6560  0.00  0.00     0.000 S
ATOM     29   O  SGN F   2     -12.868  48.172 169.2490  0.00  0.00     0.000 OA
ATOM     30   O  SGN F   2     -13.502  46.225 167.9920  0.00  0.00     0.000 OA
ATOM     31   O  SGN F   2     -14.777  48.209 167.8070  0.00  0.00     0.000 OA
ATOM     32   O  SGN F   2     -15.537  44.163 170.8550  0.00  0.00     0.000 O
ATOM     34  HD  SGN F   2     -16.281  44.065 170.4240  0.00  0.00     0.000 HD
ATOM     34   C  SGN F   2     -12.933  45.244 174.8970  0.00  0.00     0.000 C
ATOM     35   O  SGN F   2     -11.886  44.541 174.3200  0.00  0.00     0.000 O
ATOM     36   S  SGN F   2     -10.632  44.023 175.0150  0.00  0.00     0.000 S
ATOM     37   O  SGN F   2     -10.602  42.613 174.7190  0.00  0.00     0.000 OA
ATOM     38   O  SGN F   2      -9.553  44.784 174.4230  0.00  0.00     0.000 OA
ATOM     39   O  SGN F   2     -10.788  44.298 176.4380  0.00  0.00     0.000 OA
BRANCH 20 40
ATOM     40  O4  IDS F   3     -14.753  48.030 172.5370  0.00  0.00     0.000 O
BRANCH 40 44
ATOM     41  C1  IDS F   3     -17.365  50.333 172.7890  0.00  0.00     0.000 C
ATOM     42  C2  IDS F   3     -17.107  49.626 171.4820  0.00  0.00     0.000 C
ATOM     43  C3  IDS F   3     -15.595  49.699 171.0400  0.00  0.00     0.000 C
ATOM     44  C4  IDS F   3     -14.656  49.407 172.1950  0.00  0.00     0.000 C
ATOM     45  C5  IDS F   3     -15.053  50.270 173.3930  0.00  0.00     0.000 C
ATOM     46  O5  IDS F   3     -16.380  49.985 173.7740  0.00  0.00     0.000 O
ATOM     47   O  IDS F   3     -17.933  47.157 169.5590  0.00  0.00     0.000 OA
ATOM     48   O  IDS F   3     -19.035  46.404 171.5130  0.00  0.00     0.000 OA
ATOM     49   O  IDS F   3     -19.565  48.537 170.5270  0.00  0.00     0.000 OA
ATOM     50   O  IDS F   3     -17.526  48.263 171.6100  0.00  0.00     0.000 O
ATOM     51   S  IDS F   3     -18.582  47.543 170.7600  0.00  0.00     0.000 S
ATOM     52   O  IDS F   3     -15.294  51.013 170.5810  0.00  0.00     0.000 O
ATOM     54  HD  IDS F   3     -16.026  50.549 170.5780  0.00  0.00     0.000 HD
ATOM     54   C  IDS F   3     -14.114  50.180 174.6000  0.00  0.00     0.000 C
ATOM     55   O  IDS F   3     -14.381  49.461 175.5600  0.00  0.00     0.000 OA
ATOM     56   O  IDS F   3     -13.055  50.820 174.6390  0.00  0.00     0.000 OA
BRANCH 41 57
ATOM     57  O4  SGN F   4     -17.417  51.709 172.5520  0.00  0.00     0.000 O
BRANCH 57 61
ATOM     58  C1  SGN F   4     -19.238  54.737 174.6170  0.00  0.00     0.000 C
ATOM     59  C2  SGN F   4     -17.701  54.741 174.6210  0.00  0.00     0.000 C
ATOM     60  C3  SGN F   4     -17.141  53.849 173.5270  0.00  0.00     0.000 C
ATOM     61  C4  SGN F   4     -17.772  52.465 173.6630  0.00  0.00     0.000 C
ATOM     62  C5  SGN F   4     -19.308  52.585 173.7090  0.00  0.00     0.000 C
ATOM     63  O5  SGN F   4     -19.710  53.425 174.7470  0.00  0.00     0.000 O
ATOM     64   N  SGN F   4     -17.191  56.095 174.5140  0.00  0.00     0.000 N
ATOM     66  HD  SGN F   4     -17.747  55.570 174.9210  0.00  0.00     0.000 HD
ATOM     66   S  SGN F   4     -17.015  56.945 175.8940  0.00  0.00     0.000 S
ATOM     67   O  SGN F   4     -18.357  57.207 176.3780  0.00  0.00     0.000 OA
ATOM     68   O  SGN F   4     -16.242  56.135 176.8350  0.00  0.00     0.000 OA
ATOM     69   O  SGN F   4     -16.338  58.146 175.4590  0.00  0.00     0.000 OA
ATOM     70   O  SGN F   4     -15.737  53.710 173.6940  0.00  0.00     0.000 O
ATOM     72  HD  SGN F   4     -16.293  53.185 174.1010  0.00  0.00     0.000 HD
ATOM     72   C  SGN F   4     -20.025  51.286 173.9690  0.00  0.00     0.000 C
ATOM     73   O  SGN F   4     -19.577  50.801 175.2140  0.00  0.00     0.000 O
ATOM     74   S  SGN F   4     -20.415  49.934 176.1980  0.00  0.00     0.000 S
ATOM     75   O  SGN F   4     -21.279  49.094 175.4360  0.00  0.00     0.000 OA
ATOM     76   O  SGN F   4     -19.470  49.158 177.0000  0.00  0.00     0.000 OA
ATOM     77   O  SGN F   4     -21.166  50.883 176.9210  0.00  0.00     0.000 OA
BRANCH 58 78
ATOM     78  O4  IDS F   5     -19.736  55.351 173.4530  0.00  0.00     0.000 O
BRANCH 78 82
ATOM     79  C1  IDS F   5     -21.590  56.995 171.0010  0.00  0.00     0.000 C
ATOM     80  C2  IDS F   5     -20.311  57.603 171.5590  0.00  0.00     0.000 C
ATOM     81  C3  IDS F   5     -20.321  57.653 173.0880  0.00  0.00     0.000 C
ATOM     82  C4  IDS F   5     -20.746  56.292 173.6790  0.00  0.00     0.000 C
ATOM     83  C5  IDS F   5     -22.040  55.819 173.0130  0.00  0.00     0.000 C
ATOM     84  O5  IDS F   5     -21.882  55.763 171.6100  0.00  0.00     0.000 O
ATOM     85   O  IDS F   5     -22.624  57.934 171.1590  0.00  0.00     0.000 OA
ATOM     86   O  IDS F   5     -19.238  56.791 171.1710  0.00  0.00     0.000 O
ATOM     87   S  IDS F   5     -17.717  57.153 171.1500  0.00  0.00     0.000 S
ATOM     88   O  IDS F   5     -17.489  58.105 172.2050  0.00  0.00     0.000 OA
ATOM     89   O  IDS F   5     -17.006  55.914 171.3720  0.00  0.00     0.000 OA
ATOM     90   O  IDS F   5     -17.492  57.728 169.8510  0.00  0.00     0.000 OA
ATOM     91   O  IDS F   5     -21.251  58.638 173.4900  0.00  0.00     0.000 O
ATOM     93  HD  IDS F   5     -21.922  58.145 173.7280  0.00  0.00     0.000 HD
ATOM     93   O  IDS F   5     -22.626  53.523 172.8540  0.00  0.00     0.000 OA
ATOM     94   O  IDS F   5     -22.941  54.402 174.7050  0.00  0.00     0.000 OA
ATOM     95   C  IDS F   5     -22.568  54.503 173.5510  0.00  0.00     0.000 C
ENDBRANCH 78 82
ENDBRANCH 58 78
ENDBRANCH 57 61
ENDBRANCH 41 57
ENDBRANCH 40 44
ENDBRANCH 20 40
ENDBRANCH 19 23
ENDBRANCH 1 19
TORSDOF 8
ENDMDL
MODEL 23
REMARK VINA RESULT:      -6.5      3.853     11.394
FFDIST PL LJ 2322 74 36 -1
ROOT
ATOM      1  C1  IDS F   1     -16.396  58.115 169.2980  0.00  0.00     0.000 C
ATOM      2  C2  IDS F   1     -17.608  58.625 168.5010  0.00  0.00     0.000 C
ATOM      3  C3  IDS F   1     -17.225  59.629 167.3870  0.00  0.00     0.000 C
ATOM      4  C4  IDS F   1     -15.904  59.286 166.6600  0.00  0.00     0.000 C
ATOM      5  C5  IDS F   1     -14.872  58.747 167.6560  0.00  0.00     0.000 C
ATOM      6  O5  IDS F   1     -15.413  57.698 168.3890  0.00  0.00     0.000 O
ATOM      7   S  IDS F   1     -19.749  57.495 167.3010  0.00  0.00     0.000 S
ATOM      8   O  IDS F   1     -19.851  58.644 166.4530  0.00  0.00     0.000 OA
ATOM      9   O  IDS F   1     -19.893  56.282 166.5500  0.00  0.00     0.000 OA
ATOM     10   O  IDS F   1     -20.616  57.558 168.4550  0.00  0.00     0.000 OA
ATOM     11   O  IDS F   1     -18.269  57.543 167.8770  0.00  0.00     0.000 O
ATOM     12   O  IDS F   1     -17.100  60.927 167.9620  0.00  0.00     0.000 O
ATOM     14  HD  IDS F   1     -16.563  61.564 167.7250  0.00  0.00     0.000 HD
ATOM     14   O  IDS F   1     -16.196  58.300 165.7000  0.00  0.00     0.000 O
ATOM     16  HD  IDS F   1     -15.658  58.937 165.4640  0.00  0.00     0.000 HD
ATOM     16   O  IDS F   1     -12.984  57.306 167.4890  0.00  0.00     0.000 OA
ATOM     17   O  IDS F   1     -12.967  58.970 166.2210  0.00  0.00     0.000 OA
ATOM     18   C  IDS F   1     -13.536  58.320 167.0830  0.00  0.00     0.000 C
ENDROOT
BRANCH 1 19
ATOM     19  O4  SGN F   2     -16.781  57.014 170.0490  0.00  0.00     0.000 O
BRANCH 19 23
ATOM     20  C1  SGN F   2     -16.847  55.592 173.9690  0.00  0.00     0.000 C
ATOM     21  C2  SGN F   2     -17.892  56.646 173.6390  0.00  0.00     0.000 C
ATOM     22  C3  SGN F   2     -18.161  56.697 172.1290  0.00  0.00     0.000 C
ATOM     23  C4  SGN F   2     -16.779  56.985 171.4600  0.00  0.00     0.000 C
ATOM     24  C5  SGN F   2     -15.878  55.863 171.8540  0.00  0.00     0.000 C
ATOM     25  O5  SGN F   2     -15.685  55.855 173.2330  0.00  0.00     0.000 O
ATOM     26   N  SGN F   2     -19.084  56.424 174.4930  0.00  0.00     0.000 N
ATOM     28  HD  SGN F   2     -19.940  56.409 174.3650  0.00  0.00     0.000 HD
ATOM     28   S  SGN F   2     -19.047  57.040 176.0510  0.00  0.00     0.000 S
ATOM     29   O  SGN F   2     -17.800  56.623 176.6540  0.00  0.00     0.000 OA
ATOM     30   O  SGN F   2     -19.125  58.473 175.8820  0.00  0.00     0.000 OA
ATOM     31   O  SGN F   2     -20.191  56.535 176.7190  0.00  0.00     0.000 OA
ATOM     32   O  SGN F   2     -19.073  57.758 171.8720  0.00  0.00     0.000 O
ATOM     34  HD  SGN F   2     -19.930  57.743 171.7430  0.00  0.00     0.000 HD
ATOM     34   C  SGN F   2     -14.523  55.975 171.2390  0.00  0.00     0.000 C
ATOM     35   O  SGN F   2     -14.061  57.231 171.6030  0.00  0.00     0.000 O
ATOM     36   S  SGN F   2     -12.658  57.791 171.3950  0.00  0.00     0.000 S
ATOM     37   O  SGN F   2     -12.856  59.023 170.6740  0.00  0.00     0.000 OA
ATOM     38   O  SGN F   2     -12.135  57.956 172.7330  0.00  0.00     0.000 OA
ATOM     39   O  SGN F   2     -11.913  56.801 170.6260  0.00  0.00     0.000 OA
BRANCH 20 40
ATOM     40  O4  IDS F   3     -17.314  54.299 173.6970  0.00  0.00     0.000 O
BRANCH 40 44
ATOM     41  C1  IDS F   3     -18.219  50.926 173.6720  0.00  0.00     0.000 C
ATOM     42  C2  IDS F   3     -18.804  51.856 174.7050  0.00  0.00     0.000 C
ATOM     43  C3  IDS F   3     -17.706  52.710 175.4460  0.00  0.00     0.000 C
ATOM     44  C4  IDS F   3     -16.691  53.286 174.4760  0.00  0.00     0.000 C
ATOM     45  C5  IDS F   3     -16.180  52.169 173.5670  0.00  0.00     0.000 C
ATOM     46  O5  IDS F   3     -17.253  51.600 172.8510  0.00  0.00     0.000 O
ATOM     47   O  IDS F   3     -21.326  53.716 175.5180  0.00  0.00     0.000 OA
ATOM     48   O  IDS F   3     -21.899  53.402 173.2440  0.00  0.00     0.000 OA
ATOM     49   O  IDS F   3     -21.638  51.527 174.7340  0.00  0.00     0.000 OA
ATOM     50   O  IDS F   3     -19.754  52.712 174.0620  0.00  0.00     0.000 O
ATOM     51   S  IDS F   3     -21.246  52.847 174.4000  0.00  0.00     0.000 S
ATOM     52   O  IDS F   3     -16.989  51.881 176.3550  0.00  0.00     0.000 O
ATOM     54  HD  IDS F   3     -17.802  51.852 176.0590  0.00  0.00     0.000 HD
ATOM     54   C  IDS F   3     -15.050  52.571 172.6130  0.00  0.00     0.000 C
ATOM     55   O  IDS F   3     -15.278  52.854 171.4400  0.00  0.00     0.000 OA
ATOM     56   O  IDS F   3     -13.875  52.634 173.0000  0.00  0.00     0.000 OA
BRANCH 41 57
ATOM     57  O4  SGN F   4     -17.679  49.814 174.3240  0.00  0.00     0.000 O
BRANCH 57 61
ATOM     58  C1  SGN F   4     -16.978  45.876 173.4600  0.00  0.00     0.000 C
ATOM     59  C2  SGN F   4     -16.350  46.903 172.5040  0.00  0.00     0.000 C
ATOM     60  C3  SGN F   4     -16.325  48.291 173.1190  0.00  0.00     0.000 C
ATOM     61  C4  SGN F   4     -17.737  48.638 173.5860  0.00  0.00     0.000 C
ATOM     62  C5  SGN F   4     -18.289  47.516 174.4860  0.00  0.00     0.000 C
ATOM     63  O5  SGN F   4     -18.266  46.289 173.8220  0.00  0.00     0.000 O
ATOM     64   N  SGN F   4     -15.025  46.480 172.0940  0.00  0.00     0.000 N
ATOM     66  HD  SGN F   4     -15.853  46.244 172.1920  0.00  0.00     0.000 HD
ATOM     66   S  SGN F   4     -14.915  45.486 170.8060  0.00  0.00     0.000 S
ATOM     67   O  SGN F   4     -15.477  44.217 171.2290  0.00  0.00     0.000 OA
ATOM     68   O  SGN F   4     -15.671  46.080 169.7050  0.00  0.00     0.000 OA
ATOM     69   O  SGN F   4     -13.491  45.410 170.5670  0.00  0.00     0.000 OA
ATOM     70   O  SGN F   4     -15.939  49.243 172.1390  0.00  0.00     0.000 O
ATOM     72  HD  SGN F   4     -16.767  49.007 172.2360  0.00  0.00     0.000 HD
ATOM     72   C  SGN F   4     -19.727  47.700 174.8980  0.00  0.00     0.000 C
ATOM     73   O  SGN F   4     -20.498  47.748 173.7200  0.00  0.00     0.000 O
ATOM     74   S  SGN F   4     -21.976  47.277 173.5900  0.00  0.00     0.000 S
ATOM     75   O  SGN F   4     -22.641  47.533 174.8250  0.00  0.00     0.000 OA
ATOM     76   O  SGN F   4     -22.571  48.026 172.4850  0.00  0.00     0.000 OA
ATOM     77   O  SGN F   4     -21.864  45.888 173.3720  0.00  0.00     0.000 OA
BRANCH 58 78
ATOM     78  O4  IDS F   5     -16.162  45.681 174.5890  0.00  0.00     0.000 O
BRANCH 78 82
ATOM     79  C1  IDS F   5     -14.487  44.531 177.4220  0.00  0.00     0.000 C
ATOM     80  C2  IDS F   5     -13.754  44.735 176.1040  0.00  0.00     0.000 C
ATOM     81  C3  IDS F   5     -14.456  44.027 174.9430  0.00  0.00     0.000 C
ATOM     82  C4  IDS F   5     -15.967  44.342 174.9410  0.00  0.00     0.000 C
ATOM     83  C5  IDS F   5     -16.550  44.092 176.3340  0.00  0.00     0.000 C
ATOM     84  O5  IDS F   5     -15.852  44.843 177.3050  0.00  0.00     0.000 O
ATOM     85   O  IDS F   5     -14.271  43.207 177.8420  0.00  0.00     0.000 OA
ATOM     86   O  IDS F   5     -13.746  46.105 175.8170  0.00  0.00     0.000 O
ATOM     87   S  IDS F   5     -12.822  46.873 174.8160  0.00  0.00     0.000 S
ATOM     88   O  IDS F   5     -12.501  45.963 173.7470  0.00  0.00     0.000 OA
ATOM     89   O  IDS F   5     -13.587  48.008 174.3530  0.00  0.00     0.000 OA
ATOM     90   O  IDS F   5     -11.659  47.229 175.5840  0.00  0.00     0.000 OA
ATOM     91   O  IDS F   5     -14.278  42.634 175.1060  0.00  0.00     0.000 O
ATOM     93  HD  IDS F   5     -15.053  42.403 175.4170  0.00  0.00     0.000 HD
ATOM     93   O  IDS F   5     -18.488  45.215 177.1250  0.00  0.00     0.000 OA
ATOM     94   O  IDS F   5     -18.833  43.652 175.8080  0.00  0.00     0.000 OA
ATOM     95   C  IDS F   5     -18.044  44.335 176.4320  0.00  0.00     0.000 C
ENDBRANCH 78 82
ENDBRANCH 58 78
ENDBRANCH 57 61
ENDBRANCH 41 57
ENDBRANCH 40 44
ENDBRANCH 20 40
ENDBRANCH 19 23
ENDBRANCH 1 19
TORSDOF 8
ENDMDL
MODEL 24
REMARK VINA RESULT:      -6.4      2.105      3.044
FFDIST PL LJ 2322 74 36 -1
ROOT
ATOM      1  C1  IDS F   1     -10.394  46.056 171.5920  0.00  0.00     0.000 C
ATOM      2  C2  IDS F   1      -9.910  47.262 170.7700  0.00  0.00     0.000 C
ATOM      3  C3  IDS F   1      -8.399  47.209 170.4420  0.00  0.00     0.000 C
ATOM      4  C4  IDS F   1      -7.875  45.789 170.1230  0.00  0.00     0.000 C
ATOM      5  C5  IDS F   1      -8.544  44.757 171.0370  0.00  0.00     0.000 C
ATOM      6  O5  IDS F   1      -9.926  44.885 170.9770  0.00  0.00     0.000 O
ATOM      7   S  IDS F   1     -10.754  48.554 168.5520  0.00  0.00     0.000 S
ATOM      8   O  IDS F   1      -9.419  49.029 168.3490  0.00  0.00     0.000 OA
ATOM      9   O  IDS F   1     -11.325  48.075 167.3260  0.00  0.00     0.000 OA
ATOM     10   O  IDS F   1     -11.598  49.500 169.2430  0.00  0.00     0.000 OA
ATOM     11   O  IDS F   1     -10.601  47.318 169.5380  0.00  0.00     0.000 O
ATOM     12   O  IDS F   1      -7.669  47.719 171.5550  0.00  0.00     0.000 O
ATOM     14  HD  IDS F   1      -6.884  47.479 171.8310  0.00  0.00     0.000 HD
ATOM     14   O  IDS F   1      -8.197  45.513 168.7820  0.00  0.00     0.000 O
ATOM     16  HD  IDS F   1      -7.412  45.273 169.0590  0.00  0.00     0.000 HD
ATOM     16   O  IDS F   1      -9.020  42.430 170.8600  0.00  0.00     0.000 OA
ATOM     17   O  IDS F   1      -7.016  42.967 170.5900  0.00  0.00     0.000 OA
ATOM     18   C  IDS F   1      -8.167  43.306 170.8110  0.00  0.00     0.000 C
ENDROOT
BRANCH 1 19
ATOM     19  O4  SGN F   2     -11.780  46.026 171.5750  0.00  0.00     0.000 O
BRANCH 19 23
ATOM     20  C1  SGN F   2     -14.710  47.149 174.3220  0.00  0.00     0.000 C
ATOM     21  C2  SGN F   2     -13.294  47.074 174.8720  0.00  0.00     0.000 C
ATOM     22  C3  SGN F   2     -12.261  47.207 173.7440  0.00  0.00     0.000 C
ATOM     23  C4  SGN F   2     -12.582  46.056 172.7370  0.00  0.00     0.000 C
ATOM     24  C5  SGN F   2     -13.983  46.280 172.2730  0.00  0.00     0.000 C
ATOM     25  O5  SGN F   2     -14.871  46.165 173.3380  0.00  0.00     0.000 O
ATOM     26   N  SGN F   2     -13.158  48.048 175.9810  0.00  0.00     0.000 N
ATOM     28  HD  SGN F   2     -12.567  48.636 176.2160  0.00  0.00     0.000 HD
ATOM     28   S  SGN F   2     -13.702  47.581 177.4950  0.00  0.00     0.000 S
ATOM     29   O  SGN F   2     -15.038  47.053 177.3320  0.00  0.00     0.000 OA
ATOM     30   O  SGN F   2     -12.760  46.575 177.9300  0.00  0.00     0.000 OA
ATOM     31   O  SGN F   2     -13.649  48.731 178.3230  0.00  0.00     0.000 OA
ATOM     32   O  SGN F   2     -10.964  47.037 174.3030  0.00  0.00     0.000 O
ATOM     34  HD  SGN F   2     -10.373  47.625 174.5380  0.00  0.00     0.000 HD
ATOM     34   C  SGN F   2     -14.413  45.278 171.2550  0.00  0.00     0.000 C
ATOM     35   O  SGN F   2     -14.200  44.042 171.8470  0.00  0.00     0.000 O
ATOM     36   S  SGN F   2     -14.637  42.680 171.3170  0.00  0.00     0.000 S
ATOM     37   O  SGN F   2     -13.427  41.899 171.2650  0.00  0.00     0.000 OA
ATOM     38   O  SGN F   2     -15.610  42.216 172.2810  0.00  0.00     0.000 OA
ATOM     39   O  SGN F   2     -15.222  42.902 170.0000  0.00  0.00     0.000 OA
BRANCH 20 40
ATOM     40  O4  IDS F   3     -14.993  48.417 173.7950  0.00  0.00     0.000 O
BRANCH 40 44
ATOM     41  C1  IDS F   3     -15.862  51.786 173.4910  0.00  0.00     0.000 C
ATOM     42  C2  IDS F   3     -15.162  51.297 174.7340  0.00  0.00     0.000 C
ATOM     43  C3  IDS F   3     -15.847  50.020 175.3560  0.00  0.00     0.000 C
ATOM     44  C4  IDS F   3     -16.193  48.994 174.2940  0.00  0.00     0.000 C
ATOM     45  C5  IDS F   3     -16.951  49.684 173.1600  0.00  0.00     0.000 C
ATOM     46  O5  IDS F   3     -16.154  50.701 172.5970  0.00  0.00     0.000 O
ATOM     47   O  IDS F   3     -12.328  50.975 176.2660  0.00  0.00     0.000 OA
ATOM     48   O  IDS F   3     -11.461  51.491 174.1250  0.00  0.00     0.000 OA
ATOM     49   O  IDS F   3     -12.942  53.008 175.2690  0.00  0.00     0.000 OA
ATOM     50   O  IDS F   3     -13.794  51.023 174.4100  0.00  0.00     0.000 O
ATOM     51   S  IDS F   3     -12.553  51.664 175.0460  0.00  0.00     0.000 S
ATOM     52   O  IDS F   3     -17.067  50.393 175.9880  0.00  0.00     0.000 O
ATOM     54  HD  IDS F   3     -16.327  50.822 175.8540  0.00  0.00     0.000 HD
ATOM     54   C  IDS F   3     -17.482  48.749 172.0680  0.00  0.00     0.000 C
ATOM     55   O  IDS F   3     -16.875  48.597 171.0100  0.00  0.00     0.000 OA
ATOM     56   O  IDS F   3     -18.532  48.111 172.2240  0.00  0.00     0.000 OA
BRANCH 41 57
ATOM     57  O4  SGN F   4     -17.010  52.487 173.8690  0.00  0.00     0.000 O
BRANCH 57 61
ATOM     58  C1  SGN F   4     -19.229  55.568 172.3410  0.00  0.00     0.000 C
ATOM     59  C2  SGN F   4     -19.560  54.164 171.8110  0.00  0.00     0.000 C
ATOM     60  C3  SGN F   4     -18.985  53.082 172.7080  0.00  0.00     0.000 C
ATOM     61  C4  SGN F   4     -17.494  53.353 172.8960  0.00  0.00     0.000 C
ATOM     62  C5  SGN F   4     -17.275  54.802 173.3700  0.00  0.00     0.000 C
ATOM     63  O5  SGN F   4     -17.842  55.710 172.4750  0.00  0.00     0.000 O
ATOM     64   N  SGN F   4     -20.991  54.005 171.6390  0.00  0.00     0.000 N
ATOM     66  HD  SGN F   4     -20.304  54.510 171.4850  0.00  0.00     0.000 HD
ATOM     66   S  SGN F   4     -21.640  54.493 170.2240  0.00  0.00     0.000 S
ATOM     67   O  SGN F   4     -21.533  55.940 170.2120  0.00  0.00     0.000 OA
ATOM     68   O  SGN F   4     -20.880  53.878 169.1370  0.00  0.00     0.000 OA
ATOM     69   O  SGN F   4     -23.009  54.040 170.3140  0.00  0.00     0.000 OA
ATOM     70   O  SGN F   4     -19.126  51.815 172.0800  0.00  0.00     0.000 O
ATOM     72  HD  SGN F   4     -18.439  52.319 171.9270  0.00  0.00     0.000 HD
ATOM     72   C  SGN F   4     -15.828  55.213 173.4650  0.00  0.00     0.000 C
ATOM     73   O  SGN F   4     -15.267  55.073 172.1800  0.00  0.00     0.000 O
ATOM     74   S  SGN F   4     -14.101  55.931 171.6080  0.00  0.00     0.000 S
ATOM     75   O  SGN F   4     -13.223  56.270 172.6780  0.00  0.00     0.000 OA
ATOM     76   O  SGN F   4     -13.433  55.124 170.5890  0.00  0.00     0.000 OA
ATOM     77   O  SGN F   4     -14.747  57.086 171.1190  0.00  0.00     0.000 OA
BRANCH 58 78
ATOM     78  O4  IDS F   5     -19.892  55.812 173.5580  0.00  0.00     0.000 O
BRANCH 78 82
ATOM     79  C1  IDS F   5     -21.438  57.152 176.3790  0.00  0.00     0.000 C
ATOM     80  C2  IDS F   5     -22.225  56.330 175.3680  0.00  0.00     0.000 C
ATOM     81  C3  IDS F   5     -22.028  56.842 173.9390  0.00  0.00     0.000 C
ATOM     82  C4  IDS F   5     -20.530  57.054 173.6330  0.00  0.00     0.000 C
ATOM     83  C5  IDS F   5     -19.888  57.890 174.7410  0.00  0.00     0.000 C
ATOM     84  O5  IDS F   5     -20.092  57.283 176.0010  0.00  0.00     0.000 O
ATOM     85   O  IDS F   5     -22.081  58.394 176.5270  0.00  0.00     0.000 OA
ATOM     86   O  IDS F   5     -21.749  55.014 175.4130  0.00  0.00     0.000 O
ATOM     87   S  IDS F   5     -22.445  53.721 174.8750  0.00  0.00     0.000 S
ATOM     88   O  IDS F   5     -23.245  54.106 173.7420  0.00  0.00     0.000 OA
ATOM     89   O  IDS F   5     -21.381  52.815 174.5080  0.00  0.00     0.000 OA
ATOM     90   O  IDS F   5     -23.255  53.255 175.9690  0.00  0.00     0.000 OA
ATOM     91   O  IDS F   5     -22.701  58.079 173.8190  0.00  0.00     0.000 O
ATOM     93  HD  IDS F   5     -22.037  58.633 173.8660  0.00  0.00     0.000 HD
ATOM     93   O  IDS F   5     -17.574  57.758 175.2590  0.00  0.00     0.000 OA
ATOM     94   O  IDS F   5     -18.054  58.871 173.5770  0.00  0.00     0.000 OA
ATOM     95   C  IDS F   5     -18.418  58.191 174.5170  0.00  0.00     0.000 C
ENDBRANCH 78 82
ENDBRANCH 58 78
ENDBRANCH 57 61
ENDBRANCH 41 57
ENDBRANCH 40 44
ENDBRANCH 20 40
ENDBRANCH 19 23
ENDBRANCH 1 19
TORSDOF 8
ENDMDL
MODEL 25
REMARK VINA RESULT:      -6.4      1.628      2.524
FFDIST PL LJ 2322 74 36 -1
ROOT
ATOM      1  C1  IDS F   1      -8.639  49.172 174.6220  0.00  0.00     0.000 C
ATOM      2  C2  IDS F   1      -7.682  50.224 174.0380  0.00  0.00     0.000 C
ATOM      3  C3  IDS F   1      -6.194  49.934 174.3500  0.00  0.00     0.000 C
ATOM      4  C4  IDS F   1      -5.823  48.433 174.3020  0.00  0.00     0.000 C
ATOM      5  C5  IDS F   1      -6.957  47.585 174.8900  0.00  0.00     0.000 C
ATOM      6  O5  IDS F   1      -8.162  47.899 174.2740  0.00  0.00     0.000 O
ATOM      7   S  IDS F   1      -7.358  51.427 171.6410  0.00  0.00     0.000 S
ATOM      8   O  IDS F   1      -5.994  51.694 171.9840  0.00  0.00     0.000 OA
ATOM      9   O  IDS F   1      -7.467  50.930 170.3000  0.00  0.00     0.000 OA
ATOM     10   O  IDS F   1      -8.242  52.537 171.9110  0.00  0.00     0.000 OA
ATOM     11   O  IDS F   1      -7.810  50.271 172.6320  0.00  0.00     0.000 O
ATOM     12   O  IDS F   1      -5.892  50.430 175.6520  0.00  0.00     0.000 O
ATOM     14  HD  IDS F   1      -5.331  50.108 176.2270  0.00  0.00     0.000 HD
ATOM     14   O  IDS F   1      -5.629  48.091 172.9520  0.00  0.00     0.000 O
ATOM     16  HD  IDS F   1      -5.067  47.769 173.5270  0.00  0.00     0.000 HD
ATOM     16   O  IDS F   1      -7.693  45.342 174.5870  0.00  0.00     0.000 OA
ATOM     17   O  IDS F   1      -5.688  45.569 175.1380  0.00  0.00     0.000 OA
ATOM     18   C  IDS F   1      -6.761  46.083 174.8680  0.00  0.00     0.000 C
ENDROOT
BRANCH 1 19
ATOM     19  O4  SGN F   2      -9.891  49.333 174.0470  0.00  0.00     0.000 O
BRANCH 19 23
ATOM     20  C1  SGN F   2     -13.833  48.033 174.4470  0.00  0.00     0.000 C
ATOM     21  C2  SGN F   2     -12.992  47.966 175.7120  0.00  0.00     0.000 C
ATOM     22  C3  SGN F   2     -11.804  48.935 175.6320  0.00  0.00     0.000 C
ATOM     23  C4  SGN F   2     -11.007  48.525 174.3520  0.00  0.00     0.000 C
ATOM     24  C5  SGN F   2     -11.951  48.664 173.2040  0.00  0.00     0.000 C
ATOM     25  O5  SGN F   2     -13.014  47.777 173.3400  0.00  0.00     0.000 O
ATOM     26   N  SGN F   2     -13.879  48.139 176.8870  0.00  0.00     0.000 N
ATOM     28  HD  SGN F   2     -13.848  48.600 177.6200  0.00  0.00     0.000 HD
ATOM     28   S  SGN F   2     -14.704  46.790 177.4410  0.00  0.00     0.000 S
ATOM     29   O  SGN F   2     -15.346  46.175 176.3000  0.00  0.00     0.000 OA
ATOM     30   O  SGN F   2     -13.683  45.946 178.0200  0.00  0.00     0.000 OA
ATOM     31   O  SGN F   2     -15.619  47.244 178.4240  0.00  0.00     0.000 OA
ATOM     32   O  SGN F   2     -11.005  48.762 176.7960  0.00  0.00     0.000 O
ATOM     34  HD  SGN F   2     -10.975  49.223 177.5290  0.00  0.00     0.000 HD
ATOM     34   C  SGN F   2     -11.307  48.355 171.8940  0.00  0.00     0.000 C
ATOM     35   O  SGN F   2     -10.774  47.083 172.0420  0.00  0.00     0.000 O
ATOM     36   S  SGN F   2     -10.163  46.209 170.9520  0.00  0.00     0.000 S
ATOM     37   O  SGN F   2      -8.847  45.879 171.4370  0.00  0.00     0.000 OA
ATOM     38   O  SGN F   2     -11.065  45.083 170.8480  0.00  0.00     0.000 OA
ATOM     39   O  SGN F   2     -10.131  47.007 169.7320  0.00  0.00     0.000 OA
BRANCH 20 40
ATOM     40  O4  IDS F   3     -14.462  49.279 174.3100  0.00  0.00     0.000 O
BRANCH 40 44
ATOM     41  C1  IDS F   3     -16.698  51.928 174.7280  0.00  0.00     0.000 C
ATOM     42  C2  IDS F   3     -16.450  50.965 175.8620  0.00  0.00     0.000 C
ATOM     43  C3  IDS F   3     -16.577  49.458 175.4180  0.00  0.00     0.000 C
ATOM     44  C4  IDS F   3     -15.866  49.196 174.1040  0.00  0.00     0.000 C
ATOM     45  C5  IDS F   3     -16.306  50.242 173.0800  0.00  0.00     0.000 C
ATOM     46  O5  IDS F   3     -15.988  51.534 173.5440  0.00  0.00     0.000 O
ATOM     47   O  IDS F   3     -14.807  50.406 178.5950  0.00  0.00     0.000 OA
ATOM     48   O  IDS F   3     -13.514  52.234 177.8310  0.00  0.00     0.000 OA
ATOM     49   O  IDS F   3     -15.880  52.459 178.2250  0.00  0.00     0.000 OA
ATOM     50   O  IDS F   3     -15.147  51.220 176.4000  0.00  0.00     0.000 O
ATOM     51   S  IDS F   3     -14.810  51.610 177.8460  0.00  0.00     0.000 S
ATOM     52   O  IDS F   3     -17.949  49.133 175.2210  0.00  0.00     0.000 O
ATOM     54  HD  IDS F   3     -17.555  49.701 175.7430  0.00  0.00     0.000 HD
ATOM     54   C  IDS F   3     -15.768  50.031 171.6610  0.00  0.00     0.000 C
ATOM     55   O  IDS F   3     -14.789  50.651 171.2540  0.00  0.00     0.000 OA
ATOM     56   O  IDS F   3     -16.297  49.222 170.8880  0.00  0.00     0.000 OA
BRANCH 41 57
ATOM     57  O4  SGN F   4     -18.076  52.024 174.5150  0.00  0.00     0.000 O
BRANCH 57 61
ATOM     58  C1  SGN F   4     -20.452  55.016 173.0490  0.00  0.00     0.000 C
ATOM     59  C2  SGN F   4     -20.220  53.816 172.1180  0.00  0.00     0.000 C
ATOM     60  C3  SGN F   4     -19.682  52.617 172.8800  0.00  0.00     0.000 C
ATOM     61  C4  SGN F   4     -18.449  53.059 173.6660  0.00  0.00     0.000 C
ATOM     62  C5  SGN F   4     -18.779  54.301 174.5160  0.00  0.00     0.000 C
ATOM     63  O5  SGN F   4     -19.264  55.336 173.7170  0.00  0.00     0.000 O
ATOM     64   N  SGN F   4     -21.433  53.484 171.3950  0.00  0.00     0.000 N
ATOM     66  HD  SGN F   4     -20.892  54.117 171.6310  0.00  0.00     0.000 HD
ATOM     66   S  SGN F   4     -21.720  54.277 170.0000  0.00  0.00     0.000 S
ATOM     67   O  SGN F   4     -22.003  55.651 170.3700  0.00  0.00     0.000 OA
ATOM     68   O  SGN F   4     -20.529  54.170 169.1600  0.00  0.00     0.000 OA
ATOM     69   O  SGN F   4     -22.879  53.598 169.4660  0.00  0.00     0.000 OA
ATOM     70   O  SGN F   4     -19.282  51.607 171.9650  0.00  0.00     0.000 O
ATOM     72  HD  SGN F   4     -18.741  52.241 172.2020  0.00  0.00     0.000 HD
ATOM     72   C  SGN F   4     -17.596  54.895 175.2350  0.00  0.00     0.000 C
ATOM     73   O  SGN F   4     -16.651  55.262 174.2560  0.00  0.00     0.000 O
ATOM     74   S  SGN F   4     -15.638  56.437 174.3760  0.00  0.00     0.000 S
ATOM     75   O  SGN F   4     -15.254  56.562 175.7430  0.00  0.00     0.000 OA
ATOM     76   O  SGN F   4     -14.500  56.114 173.5170  0.00  0.00     0.000 OA
ATOM     77   O  SGN F   4     -16.385  57.563 173.9710  0.00  0.00     0.000 OA
BRANCH 58 78
ATOM     78  O4  IDS F   5     -21.497  54.751 173.9540  0.00  0.00     0.000 O
BRANCH 78 82
ATOM     79  C1  IDS F   5     -24.169  54.827 176.1900  0.00  0.00     0.000 C
ATOM     80  C2  IDS F   5     -24.342  54.290 174.7760  0.00  0.00     0.000 C
ATOM     81  C3  IDS F   5     -23.830  55.275 173.7240  0.00  0.00     0.000 C
ATOM     82  C4  IDS F   5     -22.422  55.790 174.0930  0.00  0.00     0.000 C
ATOM     83  C5  IDS F   5     -22.416  56.287 175.5400  0.00  0.00     0.000 C
ATOM     84  O5  IDS F   5     -22.855  55.269 176.4150  0.00  0.00     0.000 O
ATOM     85   O  IDS F   5     -25.122  55.841 176.3920  0.00  0.00     0.000 OA
ATOM     86   O  IDS F   5     -23.585  53.118 174.6600  0.00  0.00     0.000 O
ATOM     87   S  IDS F   5     -23.710  51.996 173.5780  0.00  0.00     0.000 S
ATOM     88   O  IDS F   5     -24.167  52.621 172.3650  0.00  0.00     0.000 OA
ATOM     89   O  IDS F   5     -22.388  51.429 173.4330  0.00  0.00     0.000 OA
ATOM     90   O  IDS F   5     -24.683  51.078 174.1070  0.00  0.00     0.000 OA
ATOM     91   O  IDS F   5     -24.721  56.372 173.6760  0.00  0.00     0.000 O
ATOM     93  HD  IDS F   5     -24.276  56.966 174.1210  0.00  0.00     0.000 HD
ATOM     93   O  IDS F   5     -20.445  56.322 176.8660  0.00  0.00     0.000 OA
ATOM     94   O  IDS F   5     -20.620  57.855 175.4820  0.00  0.00     0.000 OA
ATOM     95   C  IDS F   5     -21.083  56.853 175.9930  0.00  0.00     0.000 C
ENDBRANCH 78 82
ENDBRANCH 58 78
ENDBRANCH 57 61
ENDBRANCH 41 57
ENDBRANCH 40 44
ENDBRANCH 20 40
ENDBRANCH 19 23
ENDBRANCH 1 19
TORSDOF 8
ENDMDL
MODEL 26
REMARK VINA RESULT:      -6.4      4.868     13.323
FFDIST PL LJ 2322 74 36 -1
ROOT
ATOM      1  C1  IDS F   1     -21.278  45.474 177.6670  0.00  0.00     0.000 C
ATOM      2  C2  IDS F   1     -21.714  44.208 178.4230  0.00  0.00     0.000 C
ATOM      3  C3  IDS F   1     -22.862  44.464 179.4290  0.00  0.00     0.000 C
ATOM      4  C4  IDS F   1     -23.920  45.475 178.9300  0.00  0.00     0.000 C
ATOM      5  C5  IDS F   1     -23.246  46.616 178.1590  0.00  0.00     0.000 C
ATOM      6  O5  IDS F   1     -22.425  46.104 177.1620  0.00  0.00     0.000 O
ATOM      7   S  IDS F   1     -22.338  41.668 177.7460  0.00  0.00     0.000 S
ATOM      8   O  IDS F   1     -23.098  41.557 178.9540  0.00  0.00     0.000 OA
ATOM      9   O  IDS F   1     -23.057  41.126 176.6300  0.00  0.00     0.000 OA
ATOM     10   O  IDS F   1     -20.996  41.148 177.8660  0.00  0.00     0.000 OA
ATOM     11   O  IDS F   1     -22.171  43.230 177.5110  0.00  0.00     0.000 O
ATOM     12   O  IDS F   1     -22.306  44.958 180.6450  0.00  0.00     0.000 O
ATOM     14  HD  IDS F   1     -22.658  45.520 181.2010  0.00  0.00     0.000 HD
ATOM     14   O  IDS F   1     -24.795  44.781 178.0760  0.00  0.00     0.000 O
ATOM     16  HD  IDS F   1     -25.148  45.343 178.6320  0.00  0.00     0.000 HD
ATOM     16   O  IDS F   1     -23.943  48.115 176.4470  0.00  0.00     0.000 OA
ATOM     17   O  IDS F   1     -25.125  48.101 178.1730  0.00  0.00     0.000 OA
ATOM     18   C  IDS F   1     -24.161  47.666 177.5630  0.00  0.00     0.000 C
ENDROOT
BRANCH 1 19
ATOM     19  O4  SGN F   2     -20.482  45.105 176.5920  0.00  0.00     0.000 O
BRANCH 19 23
ATOM     20  C1  SGN F   2     -18.852  46.778 173.1380  0.00  0.00     0.000 C
ATOM     21  C2  SGN F   2     -19.410  47.772 174.1440  0.00  0.00     0.000 C
ATOM     22  C3  SGN F   2     -19.466  47.157 175.5490  0.00  0.00     0.000 C
ATOM     23  C4  SGN F   2     -20.345  45.872 175.4150  0.00  0.00     0.000 C
ATOM     24  C5  SGN F   2     -19.661  44.994 174.4210  0.00  0.00     0.000 C
ATOM     25  O5  SGN F   2     -19.624  45.610 173.1740  0.00  0.00     0.000 O
ATOM     26   N  SGN F   2     -18.654  49.043 174.0330  0.00  0.00     0.000 N
ATOM     28  HD  SGN F   2     -18.301  49.601 174.5930  0.00  0.00     0.000 HD
ATOM     28   S  SGN F   2     -19.106  50.111 172.8230  0.00  0.00     0.000 S
ATOM     29   O  SGN F   2     -19.188  49.361 171.5900  0.00  0.00     0.000 OA
ATOM     30   O  SGN F   2     -20.391  50.621 173.2450  0.00  0.00     0.000 OA
ATOM     31   O  SGN F   2     -18.127  51.136 172.7950  0.00  0.00     0.000 OA
ATOM     32   O  SGN F   2     -20.079  48.095 176.4250  0.00  0.00     0.000 O
ATOM     34  HD  SGN F   2     -19.726  48.653 176.9860  0.00  0.00     0.000 HD
ATOM     34   C  SGN F   2     -20.365  43.693 174.2290  0.00  0.00     0.000 C
ATOM     35   O  SGN F   2     -21.667  44.029 173.8900  0.00  0.00     0.000 O
ATOM     36   S  SGN F   2     -22.766  43.087 173.4090  0.00  0.00     0.000 S
ATOM     37   O  SGN F   2     -23.862  43.305 174.3190  0.00  0.00     0.000 OA
ATOM     38   O  SGN F   2     -23.023  43.502 172.0480  0.00  0.00     0.000 OA
ATOM     39   O  SGN F   2     -22.230  41.734 173.4850  0.00  0.00     0.000 OA
BRANCH 20 40
ATOM     40  O4  IDS F   3     -17.506  46.482 173.3960  0.00  0.00     0.000 O
BRANCH 40 44
ATOM     41  C1  IDS F   3     -14.017  46.552 173.5030  0.00  0.00     0.000 C
ATOM     42  C2  IDS F   3     -14.797  47.843 173.4970  0.00  0.00     0.000 C
ATOM     43  C3  IDS F   3     -15.879  47.894 172.3510  0.00  0.00     0.000 C
ATOM     44  C4  IDS F   3     -16.662  46.598 172.2580  0.00  0.00     0.000 C
ATOM     45  C5  IDS F   3     -15.684  45.425 172.2130  0.00  0.00     0.000 C
ATOM     46  O5  IDS F   3     -14.886  45.417 173.3750  0.00  0.00     0.000 O
ATOM     47   O  IDS F   3     -16.050  50.228 175.2920  0.00  0.00     0.000 OA
ATOM     48   O  IDS F   3     -15.605  48.718 177.0590  0.00  0.00     0.000 OA
ATOM     49   O  IDS F   3     -13.843  49.501 175.6140  0.00  0.00     0.000 OA
ATOM     50   O  IDS F   3     -15.416  48.007 174.7770  0.00  0.00     0.000 O
ATOM     51   S  IDS F   3     -15.216  49.177 175.7520  0.00  0.00     0.000 S
ATOM     52   O  IDS F   3     -15.235  48.083 171.0950  0.00  0.00     0.000 O
ATOM     54  HD  IDS F   3     -15.024  48.325 171.8990  0.00  0.00     0.000 HD
ATOM     54   C  IDS F   3     -16.324  44.051 171.9890  0.00  0.00     0.000 C
ATOM     55   O  IDS F   3     -16.543  43.291 172.9290  0.00  0.00     0.000 OA
ATOM     56   O  IDS F   3     -16.649  43.671 170.8560  0.00  0.00     0.000 OA
BRANCH 41 57
ATOM     57  O4  SGN F   4     -13.057  46.604 172.4890  0.00  0.00     0.000 O
BRANCH 57 61
ATOM     58  C1  SGN F   4      -9.267  45.062 172.4170  0.00  0.00     0.000 C
ATOM     59  C2  SGN F   4     -10.237  44.529 171.3510  0.00  0.00     0.000 C
ATOM     60  C3  SGN F   4     -11.451  45.429 171.2050  0.00  0.00     0.000 C
ATOM     61  C4  SGN F   4     -12.073  45.628 172.5860  0.00  0.00     0.000 C
ATOM     62  C5  SGN F   4     -11.002  46.104 173.5860  0.00  0.00     0.000 C
ATOM     63  O5  SGN F   4      -9.936  45.206 173.6390  0.00  0.00     0.000 O
ATOM     64   N  SGN F   4      -9.557  44.347 170.0830  0.00  0.00     0.000 N
ATOM     66  HD  SGN F   4      -9.531  44.199 170.9360  0.00  0.00     0.000 HD
ATOM     66   S  SGN F   4      -8.792  42.929 169.8340  0.00  0.00     0.000 S
ATOM     67   O  SGN F   4      -7.661  42.917 170.7430  0.00  0.00     0.000 OA
ATOM     68   O  SGN F   4      -9.733  41.846 170.1170  0.00  0.00     0.000 OA
ATOM     69   O  SGN F   4      -8.388  43.009 168.4490  0.00  0.00     0.000 OA
ATOM     70   O  SGN F   4     -12.417  44.801 170.3750  0.00  0.00     0.000 O
ATOM     72  HD  SGN F   4     -12.392  44.653 171.2280  0.00  0.00     0.000 HD
ATOM     72   C  SGN F   4     -11.483  46.209 175.0100  0.00  0.00     0.000 C
ATOM     73   O  SGN F   4     -11.921  44.929 175.4010  0.00  0.00     0.000 O
ATOM     74   S  SGN F   4     -11.878  44.364 176.8500  0.00  0.00     0.000 S
ATOM     75   O  SGN F   4     -12.093  45.441 177.7600  0.00  0.00     0.000 OA
ATOM     76   O  SGN F   4     -12.926  43.349 176.9490  0.00  0.00     0.000 OA
ATOM     77   O  SGN F   4     -10.562  43.872 176.9770  0.00  0.00     0.000 OA
BRANCH 58 78
ATOM     78  O4  IDS F   5      -8.685  46.275 172.0020  0.00  0.00     0.000 O
BRANCH 78 82
ATOM     79  C1  IDS F   5      -6.690  49.086 171.4890  0.00  0.00     0.000 C
ATOM     80  C2  IDS F   5      -6.950  48.091 170.3660  0.00  0.00     0.000 C
ATOM     81  C3  IDS F   5      -6.644  46.654 170.7940  0.00  0.00     0.000 C
ATOM     82  C4  IDS F   5      -7.297  46.335 172.1560  0.00  0.00     0.000 C
ATOM     83  C5  IDS F   5      -6.944  47.428 173.1670  0.00  0.00     0.000 C
ATOM     84  O5  IDS F   5      -7.327  48.697 172.6790  0.00  0.00     0.000 O
ATOM     85   O  IDS F   5      -5.299  49.220 171.6400  0.00  0.00     0.000 OA
ATOM     86   O  IDS F   5      -8.310  48.152 170.0380  0.00  0.00     0.000 O
ATOM     87   S  IDS F   5      -9.008  47.637 168.7360  0.00  0.00     0.000 S
ATOM     88   O  IDS F   5      -8.255  46.504 168.2670  0.00  0.00     0.000 OA
ATOM     89   O  IDS F   5     -10.354  47.276 169.1190  0.00  0.00     0.000 OA
ATOM     90   O  IDS F   5      -8.940  48.743 167.8180  0.00  0.00     0.000 OA
ATOM     91   O  IDS F   5      -5.242  46.520 170.9150  0.00  0.00     0.000 O
ATOM     93  HD  IDS F   5      -5.146  46.556 171.7750  0.00  0.00     0.000 HD
ATOM     93   O  IDS F   5      -8.327  47.933 175.0320  0.00  0.00     0.000 OA
ATOM     94   O  IDS F   5      -7.148  46.238 175.2230  0.00  0.00     0.000 OA
ATOM     95   C  IDS F   5      -7.507  47.190 174.5560  0.00  0.00     0.000 C
ENDBRANCH 78 82
ENDBRANCH 58 78
ENDBRANCH 57 61
ENDBRANCH 41 57
ENDBRANCH 40 44
ENDBRANCH 20 40
ENDBRANCH 19 23
ENDBRANCH 1 19
TORSDOF 8
ENDMDL
MODEL 27
REMARK VINA RESULT:      -6.3      4.012     11.641
FFDIST PL LJ 2322 74 36 -1
ROOT
ATOM      1  C1  IDS F   1     -22.168  47.470 174.7320  0.00  0.00     0.000 C
ATOM      2  C2  IDS F   1     -21.874  46.105 174.0870  0.00  0.00     0.000 C
ATOM      3  C3  IDS F   1     -21.668  44.974 175.1240  0.00  0.00     0.000 C
ATOM      4  C4  IDS F   1     -22.603  45.069 176.3520  0.00  0.00     0.000 C
ATOM      5  C5  IDS F   1     -22.783  46.532 176.7720  0.00  0.00     0.000 C
ATOM      6  O5  IDS F   1     -23.184  47.299 175.6850  0.00  0.00     0.000 O
ATOM      7   S  IDS F   1     -22.958  44.632 172.0990  0.00  0.00     0.000 S
ATOM      8   O  IDS F   1     -22.393  43.457 172.6920  0.00  0.00     0.000 OA
ATOM      9   O  IDS F   1     -24.320  44.410 171.7070  0.00  0.00     0.000 OA
ATOM     10   O  IDS F   1     -22.144  45.186 171.0430  0.00  0.00     0.000 OA
ATOM     11   O  IDS F   1     -22.951  45.718 173.2580  0.00  0.00     0.000 O
ATOM     12   O  IDS F   1     -20.319  45.010 175.5810  0.00  0.00     0.000 O
ATOM     14  HD  IDS F   1     -20.017  44.805 176.3660  0.00  0.00     0.000 HD
ATOM     14   O  IDS F   1     -23.846  44.528 175.9770  0.00  0.00     0.000 O
ATOM     16  HD  IDS F   1     -23.545  44.323 176.7630  0.00  0.00     0.000 HD
ATOM     16   O  IDS F   1     -24.485  47.744 177.9140  0.00  0.00     0.000 OA
ATOM     17   O  IDS F   1     -23.721  46.081 178.9290  0.00  0.00     0.000 OA
ATOM     18   C  IDS F   1     -23.716  46.792 177.9380  0.00  0.00     0.000 C
ENDROOT
BRANCH 1 19
ATOM     19  O4  SGN F   2     -22.636  48.338 173.7570  0.00  0.00     0.000 O
BRANCH 19 23
ATOM     20  C1  SGN F   2     -19.891  51.392 173.0300  0.00  0.00     0.000 C
ATOM     21  C2  SGN F   2     -20.813  51.612 174.2180  0.00  0.00     0.000 C
ATOM     22  C3  SGN F   2     -21.368  50.278 174.7360  0.00  0.00     0.000 C
ATOM     23  C4  SGN F   2     -22.095  49.620 173.5190  0.00  0.00     0.000 C
ATOM     24  C5  SGN F   2     -21.063  49.448 172.4540  0.00  0.00     0.000 C
ATOM     25  O5  SGN F   2     -20.584  50.687 172.0380  0.00  0.00     0.000 O
ATOM     26   N  SGN F   2     -20.109  52.444 175.2240  0.00  0.00     0.000 N
ATOM     28  HD  SGN F   2     -20.007  52.418 176.0830  0.00  0.00     0.000 HD
ATOM     28   S  SGN F   2     -20.112  54.104 174.9960  0.00  0.00     0.000 S
ATOM     29   O  SGN F   2     -19.706  54.356 173.6310  0.00  0.00     0.000 OA
ATOM     30   O  SGN F   2     -21.477  54.508 175.2490  0.00  0.00     0.000 OA
ATOM     31   O  SGN F   2     -19.224  54.651 175.9560  0.00  0.00     0.000 OA
ATOM     32   O  SGN F   2     -22.291  50.553 175.7830  0.00  0.00     0.000 O
ATOM     34  HD  SGN F   2     -22.189  50.526 176.6420  0.00  0.00     0.000 HD
ATOM     34   C  SGN F   2     -21.605  48.774 171.2380  0.00  0.00     0.000 C
ATOM     35   O  SGN F   2     -22.698  49.538 170.8550  0.00  0.00     0.000 O
ATOM     36   S  SGN F   2     -23.510  49.403 169.5710  0.00  0.00     0.000 S
ATOM     37   O  SGN F   2     -24.872  49.238 170.0120  0.00  0.00     0.000 OA
ATOM     38   O  SGN F   2     -23.255  50.635 168.8560  0.00  0.00     0.000 OA
ATOM     39   O  SGN F   2     -23.000  48.235 168.8640  0.00  0.00     0.000 OA
BRANCH 20 40
ATOM     40  O4  IDS F   3     -18.729  50.699 173.3990  0.00  0.00     0.000 O
BRANCH 40 44
ATOM     41  C1  IDS F   3     -15.417  49.797 174.0390  0.00  0.00     0.000 C
ATOM     42  C2  IDS F   3     -15.870  51.216 174.2720  0.00  0.00     0.000 C
ATOM     43  C3  IDS F   3     -16.643  51.819 173.0370  0.00  0.00     0.000 C
ATOM     44  C4  IDS F   3     -17.657  50.840 172.4760  0.00  0.00     0.000 C
ATOM     45  C5  IDS F   3     -16.978  49.489 172.2550  0.00  0.00     0.000 C
ATOM     46  O5  IDS F   3     -16.469  49.000 173.4750  0.00  0.00     0.000 O
ATOM     47   O  IDS F   3     -16.914  53.375 176.4470  0.00  0.00     0.000 OA
ATOM     48   O  IDS F   3     -17.205  51.438 177.7760  0.00  0.00     0.000 OA
ATOM     49   O  IDS F   3     -15.046  52.024 176.8820  0.00  0.00     0.000 OA
ATOM     50   O  IDS F   3     -16.696  51.245 175.4420  0.00  0.00     0.000 O
ATOM     51   S  IDS F   3     -16.453  52.062 176.7190  0.00  0.00     0.000 S
ATOM     52   O  IDS F   3     -15.721  52.109 171.9920  0.00  0.00     0.000 O
ATOM     54  HD  IDS F   3     -15.637  52.094 172.8540  0.00  0.00     0.000 HD
ATOM     54   C  IDS F   3     -17.845  48.428 171.5680  0.00  0.00     0.000 C
ATOM     55   O  IDS F   3     -18.424  47.562 172.2200  0.00  0.00     0.000 OA
ATOM     56   O  IDS F   3     -17.997  48.420 170.3400  0.00  0.00     0.000 OA
BRANCH 41 57
ATOM     57  O4  SGN F   4     -14.275  49.818 173.2330  0.00  0.00     0.000 O
BRANCH 57 61
ATOM     58  C1  SGN F   4     -13.424  45.825 173.5130  0.00  0.00     0.000 C
ATOM     59  C2  SGN F   4     -13.061  46.684 174.7340  0.00  0.00     0.000 C
ATOM     60  C3  SGN F   4     -13.765  48.029 174.6970  0.00  0.00     0.000 C
ATOM     61  C4  SGN F   4     -13.476  48.687 173.3490  0.00  0.00     0.000 C
ATOM     62  C5  SGN F   4     -13.820  47.719 172.2010  0.00  0.00     0.000 C
ATOM     63  O5  SGN F   4     -13.120  46.520 172.3360  0.00  0.00     0.000 O
ATOM     64   N  SGN F   4     -13.343  45.971 175.9650  0.00  0.00     0.000 N
ATOM     66  HD  SGN F   4     -12.972  45.930 175.1840  0.00  0.00     0.000 HD
ATOM     66   S  SGN F   4     -12.185  44.981 176.5460  0.00  0.00     0.000 S
ATOM     67   O  SGN F   4     -12.101  43.872 175.6140  0.00  0.00     0.000 OA
ATOM     68   O  SGN F   4     -10.934  45.733 176.6170  0.00  0.00     0.000 OA
ATOM     69   O  SGN F   4     -12.706  44.584 177.8350  0.00  0.00     0.000 OA
ATOM     70   O  SGN F   4     -13.246  48.870 175.7170  0.00  0.00     0.000 O
ATOM     72  HD  SGN F   4     -12.875  48.828 174.9360  0.00  0.00     0.000 HD
ATOM     72   C  SGN F   4     -13.453  48.224 170.8300  0.00  0.00     0.000 C
ATOM     73   O  SGN F   4     -12.062  48.448 170.8240  0.00  0.00     0.000 O
ATOM     74   S  SGN F   4     -11.135  48.325 169.5800  0.00  0.00     0.000 S
ATOM     75   O  SGN F   4     -11.872  48.724 168.4270  0.00  0.00     0.000 OA
ATOM     76   O  SGN F   4      -9.981  49.192 169.8160  0.00  0.00     0.000 OA
ATOM     77   O  SGN F   4     -10.839  46.948 169.5210  0.00  0.00     0.000 OA
BRANCH 58 78
ATOM     78  O4  IDS F   5     -14.780  45.448 173.5530  0.00  0.00     0.000 O
BRANCH 78 82
ATOM     79  C1  IDS F   5     -17.906  43.939 173.2450  0.00  0.00     0.000 C
ATOM     80  C2  IDS F   5     -17.176  43.968 174.5800  0.00  0.00     0.000 C
ATOM     81  C3  IDS F   5     -15.744  43.443 174.4600  0.00  0.00     0.000 C
ATOM     82  C4  IDS F   5     -15.016  44.100 173.2670  0.00  0.00     0.000 C
ATOM     83  C5  IDS F   5     -15.881  43.990 172.0100  0.00  0.00     0.000 C
ATOM     84  O5  IDS F   5     -17.155  44.559 172.2330  0.00  0.00     0.000 O
ATOM     85   O  IDS F   5     -18.214  42.600 172.9450  0.00  0.00     0.000 OA
ATOM     86   O  IDS F   5     -17.102  45.300 175.0060  0.00  0.00     0.000 O
ATOM     87   S  IDS F   5     -16.806  45.833 176.4460  0.00  0.00     0.000 S
ATOM     88   O  IDS F   5     -15.946  44.875 177.0890  0.00  0.00     0.000 OA
ATOM     89   O  IDS F   5     -16.162  47.116 176.2750  0.00  0.00     0.000 OA
ATOM     90   O  IDS F   5     -18.094  45.909 177.0840  0.00  0.00     0.000 OA
ATOM     91   O  IDS F   5     -15.803  42.047 174.2480  0.00  0.00     0.000 O
ATOM     93  HD  IDS F   5     -15.650  42.002 173.3970  0.00  0.00     0.000 HD
ATOM     93   O  IDS F   5     -15.713  45.532 170.2100  0.00  0.00     0.000 OA
ATOM     94   O  IDS F   5     -14.224  44.092 170.2990  0.00  0.00     0.000 OA
ATOM     95   C  IDS F   5     -15.239  44.574 170.7650  0.00  0.00     0.000 C
ENDBRANCH 78 82
ENDBRANCH 58 78
ENDBRANCH 57 61
ENDBRANCH 41 57
ENDBRANCH 40 44
ENDBRANCH 20 40
ENDBRANCH 19 23
ENDBRANCH 1 19
TORSDOF 8
ENDMDL
MODEL 28
REMARK VINA RESULT:      -6.3      3.606     11.699
FFDIST PL LJ 2322 74 36 -1
ROOT
ATOM      1  C1  IDS F   1     -16.895  58.168 169.2890  0.00  0.00     0.000 C
ATOM      2  C2  IDS F   1     -18.209  58.740 168.7330  0.00  0.00     0.000 C
ATOM      3  C3  IDS F   1     -17.992  59.778 167.6040  0.00  0.00     0.000 C
ATOM      4  C4  IDS F   1     -16.828  59.431 166.6480  0.00  0.00     0.000 C
ATOM      5  C5  IDS F   1     -15.657  58.826 167.4310  0.00  0.00     0.000 C
ATOM      6  O5  IDS F   1     -16.097  57.762 168.2090  0.00  0.00     0.000 O
ATOM      7   S  IDS F   1     -20.560  57.714 167.8830  0.00  0.00     0.000 S
ATOM      8   O  IDS F   1     -20.770  58.898 167.1060  0.00  0.00     0.000 OA
ATOM      9   O  IDS F   1     -20.871  56.536 167.1270  0.00  0.00     0.000 OA
ATOM     10   O  IDS F   1     -21.213  57.754 169.1710  0.00  0.00     0.000 OA
ATOM     11   O  IDS F   1     -19.002  57.701 168.1950  0.00  0.00     0.000 O
ATOM     12   O  IDS F   1     -17.728  61.048 168.1930  0.00  0.00     0.000 O
ATOM     14  HD  IDS F   1     -17.220  61.680 167.8900  0.00  0.00     0.000 HD
ATOM     14   O  IDS F   1     -17.312  58.491 165.7200  0.00  0.00     0.000 O
ATOM     16  HD  IDS F   1     -16.803  59.123 165.4160  0.00  0.00     0.000 HD
ATOM     16   O  IDS F   1     -13.874  57.345 166.8890  0.00  0.00     0.000 OA
ATOM     17   O  IDS F   1     -14.022  59.057 165.6960  0.00  0.00     0.000 OA
ATOM     18   C  IDS F   1     -14.454  58.388 166.6210  0.00  0.00     0.000 C
ENDROOT
BRANCH 1 19
ATOM     19  O4  SGN F   2     -17.180  57.049 170.0570  0.00  0.00     0.000 O
BRANCH 19 23
ATOM     20  C1  SGN F   2     -17.009  55.684 173.9940  0.00  0.00     0.000 C
ATOM     21  C2  SGN F   2     -18.205  56.562 173.6580  0.00  0.00     0.000 C
ATOM     22  C3  SGN F   2     -18.486  56.551 172.1490  0.00  0.00     0.000 C
ATOM     23  C4  SGN F   2     -17.167  57.038 171.4680  0.00  0.00     0.000 C
ATOM     24  C5  SGN F   2     -16.103  56.072 171.8700  0.00  0.00     0.000 C
ATOM     25  O5  SGN F   2     -15.904  56.112 173.2470  0.00  0.00     0.000 O
ATOM     26   N  SGN F   2     -19.344  56.171 174.5230  0.00  0.00     0.000 N
ATOM     28  HD  SGN F   2     -20.189  56.024 174.4000  0.00  0.00     0.000 HD
ATOM     28   S  SGN F   2     -19.395  56.805 176.0730  0.00  0.00     0.000 S
ATOM     29   O  SGN F   2     -18.096  56.591 176.6720  0.00  0.00     0.000 OA
ATOM     30   O  SGN F   2     -19.692  58.208 175.8870  0.00  0.00     0.000 OA
ATOM     31   O  SGN F   2     -20.445  56.140 176.7540  0.00  0.00     0.000 OA
ATOM     32   O  SGN F   2     -19.551  57.457 171.8860  0.00  0.00     0.000 O
ATOM     34  HD  SGN F   2     -20.395  57.310 171.7630  0.00  0.00     0.000 HD
ATOM     34   C  SGN F   2     -14.784  56.382 171.2440  0.00  0.00     0.000 C
ATOM     35   O  SGN F   2     -14.518  57.699 171.5900  0.00  0.00     0.000 O
ATOM     36   S  SGN F   2     -13.218  58.464 171.3650  0.00  0.00     0.000 S
ATOM     37   O  SGN F   2     -13.606  59.642 170.6310  0.00  0.00     0.000 OA
ATOM     38   O  SGN F   2     -12.720  58.724 172.6980  0.00  0.00     0.000 OA
ATOM     39   O  SGN F   2     -12.334  57.590 170.6040  0.00  0.00     0.000 OA
BRANCH 20 40
ATOM     40  O4  IDS F   3     -17.274  54.331 173.7410  0.00  0.00     0.000 O
BRANCH 40 44
ATOM     41  C1  IDS F   3     -17.618  50.856 173.7300  0.00  0.00     0.000 C
ATOM     42  C2  IDS F   3     -18.331  51.681 174.7720  0.00  0.00     0.000 C
ATOM     43  C3  IDS F   3     -17.376  52.705 175.4960  0.00  0.00     0.000 C
ATOM     44  C4  IDS F   3     -16.483  53.435 174.5110  0.00  0.00     0.000 C
ATOM     45  C5  IDS F   3     -15.810  52.414 173.5940  0.00  0.00     0.000 C
ATOM     46  O5  IDS F   3     -16.787  51.676 172.8950  0.00  0.00     0.000 O
ATOM     47   O  IDS F   3     -21.110  53.107 175.6220  0.00  0.00     0.000 OA
ATOM     48   O  IDS F   3     -21.658  52.697 173.3570  0.00  0.00     0.000 OA
ATOM     49   O  IDS F   3     -21.073  50.894 174.8440  0.00  0.00     0.000 OA
ATOM     50   O  IDS F   3     -19.418  52.369 174.1430  0.00  0.00     0.000 O
ATOM     51   S  IDS F   3     -20.906  52.260 174.5030  0.00  0.00     0.000 S
ATOM     52   O  IDS F   3     -16.520  52.006 176.3940  0.00  0.00     0.000 O
ATOM     54  HD  IDS F   3     -17.322  51.844 176.1110  0.00  0.00     0.000 HD
ATOM     54   C  IDS F   3     -14.775  52.993 172.6230  0.00  0.00     0.000 C
ATOM     55   O  IDS F   3     -15.064  53.231 171.4530  0.00  0.00     0.000 OA
ATOM     56   O  IDS F   3     -13.621  53.247 172.9920  0.00  0.00     0.000 OA
BRANCH 41 57
ATOM     57  O4  SGN F   4     -16.894  49.848 174.3740  0.00  0.00     0.000 O
BRANCH 57 61
ATOM     58  C1  SGN F   4     -15.481  46.135 173.3950  0.00  0.00     0.000 C
ATOM     59  C2  SGN F   4     -14.593  47.325 172.9990  0.00  0.00     0.000 C
ATOM     60  C3  SGN F   4     -14.992  48.587 173.7440  0.00  0.00     0.000 C
ATOM     61  C4  SGN F   4     -16.488  48.816 173.5380  0.00  0.00     0.000 C
ATOM     62  C5  SGN F   4     -17.275  47.543 173.9070  0.00  0.00     0.000 C
ATOM     63  O5  SGN F   4     -16.826  46.449 173.1660  0.00  0.00     0.000 O
ATOM     64   N  SGN F   4     -13.192  47.011 173.2030  0.00  0.00     0.000 N
ATOM     66  HD  SGN F   4     -13.943  46.742 172.8670  0.00  0.00     0.000 HD
ATOM     66   S  SGN F   4     -12.404  46.256 171.9910  0.00  0.00     0.000 S
ATOM     67   O  SGN F   4     -12.966  44.920 171.9180  0.00  0.00     0.000 OA
ATOM     68   O  SGN F   4     -12.628  47.012 170.7600  0.00  0.00     0.000 OA
ATOM     69   O  SGN F   4     -11.030  46.256 172.4380  0.00  0.00     0.000 OA
ATOM     70   O  SGN F   4     -14.299  49.703 173.2030  0.00  0.00     0.000 O
ATOM     72  HD  SGN F   4     -15.051  49.434 172.8670  0.00  0.00     0.000 HD
ATOM     72   C  SGN F   4     -18.752  47.619 173.6190  0.00  0.00     0.000 C
ATOM     73   O  SGN F   4     -18.899  47.851 172.2370  0.00  0.00     0.000 O
ATOM     74   S  SGN F   4     -20.097  47.374 171.3660  0.00  0.00     0.000 S
ATOM     75   O  SGN F   4     -21.275  47.398 172.1680  0.00  0.00     0.000 OA
ATOM     76   O  SGN F   4     -20.192  48.287 170.2280  0.00  0.00     0.000 OA
ATOM     77   O  SGN F   4     -19.758  46.046 171.0330  0.00  0.00     0.000 OA
BRANCH 58 78
ATOM     78  O4  IDS F   5     -15.257  45.769 174.7350  0.00  0.00     0.000 O
BRANCH 78 82
ATOM     79  C1  IDS F   5     -15.401  43.830 177.6280  0.00  0.00     0.000 C
ATOM     80  C2  IDS F   5     -14.242  44.785 177.3790  0.00  0.00     0.000 C
ATOM     81  C3  IDS F   5     -13.608  44.567 176.0030  0.00  0.00     0.000 C
ATOM     82  C4  IDS F   5     -14.690  44.502 174.9040  0.00  0.00     0.000 C
ATOM     83  C5  IDS F   5     -15.779  43.506 175.3080  0.00  0.00     0.000 C
ATOM     84  O5  IDS F   5     -16.321  43.849 176.5660  0.00  0.00     0.000 O
ATOM     85   O  IDS F   5     -14.870  42.549 177.8590  0.00  0.00     0.000 OA
ATOM     86   O  IDS F   5     -14.742  46.093 177.4100  0.00  0.00     0.000 O
ATOM     87   S  IDS F   5     -13.941  47.424 177.5900  0.00  0.00     0.000 S
ATOM     88   O  IDS F   5     -12.636  47.218 177.0190  0.00  0.00     0.000 OA
ATOM     89   O  IDS F   5     -14.689  48.441 176.8880  0.00  0.00     0.000 OA
ATOM     90   O  IDS F   5     -13.877  47.626 179.0140  0.00  0.00     0.000 OA
ATOM     91   O  IDS F   5     -12.907  43.340 176.0310  0.00  0.00     0.000 O
ATOM     93  HD  IDS F   5     -13.459  42.825 175.6060  0.00  0.00     0.000 HD
ATOM     93   O  IDS F   5     -18.010  43.665 174.5090  0.00  0.00     0.000 OA
ATOM     94   O  IDS F   5     -16.637  42.869 173.1760  0.00  0.00     0.000 OA
ATOM     95   C  IDS F   5     -16.876  43.336 174.2740  0.00  0.00     0.000 C
ENDBRANCH 78 82
ENDBRANCH 58 78
ENDBRANCH 57 61
ENDBRANCH 41 57
ENDBRANCH 40 44
ENDBRANCH 20 40
ENDBRANCH 19 23
ENDBRANCH 1 19
TORSDOF 8
ENDMDL
MODEL 29
REMARK VINA RESULT:      -6.2      3.936     13.052
FFDIST PL LJ 2322 74 36 -1
ROOT
ATOM      1  C1  IDS F   1     -20.095  49.286 172.6320  0.00  0.00     0.000 C
ATOM      2  C2  IDS F   1     -19.239  50.180 173.5450  0.00  0.00     0.000 C
ATOM      3  C3  IDS F   1     -18.769  51.483 172.8540  0.00  0.00     0.000 C
ATOM      4  C4  IDS F   1     -19.825  52.112 171.9150  0.00  0.00     0.000 C
ATOM      5  C5  IDS F   1     -20.583  51.017 171.1560  0.00  0.00     0.000 C
ATOM      6  O5  IDS F   1     -21.091  50.078 172.0450  0.00  0.00     0.000 O
ATOM      7   S  IDS F   1     -19.438  51.119 176.0700  0.00  0.00     0.000 S
ATOM      8   O  IDS F   1     -18.564  52.196 175.7150  0.00  0.00     0.000 OA
ATOM      9   O  IDS F   1     -20.560  51.592 176.8290  0.00  0.00     0.000 OA
ATOM     10   O  IDS F   1     -18.754  50.011 176.6950  0.00  0.00     0.000 OA
ATOM     11   O  IDS F   1     -19.981  50.560 174.6860  0.00  0.00     0.000 O
ATOM     12   O  IDS F   1     -17.599  51.201 172.0900  0.00  0.00     0.000 O
ATOM     14  HD  IDS F   1     -17.349  51.567 171.3460  0.00  0.00     0.000 HD
ATOM     14   O  IDS F   1     -20.723  52.838 172.7190  0.00  0.00     0.000 O
ATOM     16  HD  IDS F   1     -20.472  53.203 171.9750  0.00  0.00     0.000 HD
ATOM     16   O  IDS F   1     -22.743  50.860 170.1680  0.00  0.00     0.000 OA
ATOM     17   O  IDS F   1     -21.562  52.457 169.5100  0.00  0.00     0.000 OA
ATOM     18   C  IDS F   1     -21.689  51.478 170.2280  0.00  0.00     0.000 C
ENDROOT
BRANCH 1 19
ATOM     19  O4  SGN F   2     -20.717  48.317 173.4060  0.00  0.00     0.000 O
BRANCH 19 23
ATOM     20  C1  SGN F   2     -18.583  44.744 173.1380  0.00  0.00     0.000 C
ATOM     21  C2  SGN F   2     -19.673  44.933 172.0950  0.00  0.00     0.000 C
ATOM     22  C3  SGN F   2     -20.006  46.421 171.9130  0.00  0.00     0.000 C
ATOM     23  C4  SGN F   2     -20.423  46.939 173.3270  0.00  0.00     0.000 C
ATOM     24  C5  SGN F   2     -19.252  46.708 174.2230  0.00  0.00     0.000 C
ATOM     25  O5  SGN F   2     -18.987  45.347 174.3360  0.00  0.00     0.000 O
ATOM     26   N  SGN F   2     -19.287  44.209 170.8600  0.00  0.00     0.000 N
ATOM     28  HD  SGN F   2     -19.291  44.390 170.0130  0.00  0.00     0.000 HD
ATOM     28   S  SGN F   2     -19.599  42.564 170.7960  0.00  0.00     0.000 S
ATOM     29   O  SGN F   2     -19.084  41.977 172.0120  0.00  0.00     0.000 OA
ATOM     30   O  SGN F   2     -21.038  42.466 170.7020  0.00  0.00     0.000 OA
ATOM     31   O  SGN F   2     -18.970  42.074 169.6240  0.00  0.00     0.000 OA
ATOM     32   O  SGN F   2     -21.090  46.529 170.9990  0.00  0.00     0.000 O
ATOM     34  HD  SGN F   2     -21.094  46.709 170.1520  0.00  0.00     0.000 HD
ATOM     34   C  SGN F   2     -19.487  47.209 175.6090  0.00  0.00     0.000 C
ATOM     35   O  SGN F   2     -20.655  46.589 176.0270  0.00  0.00     0.000 O
ATOM     36   S  SGN F   2     -21.253  46.604 177.4300  0.00  0.00     0.000 S
ATOM     37   O  SGN F   2     -22.597  47.092 177.2520  0.00  0.00     0.000 OA
ATOM     38   O  SGN F   2     -21.166  45.229 177.8710  0.00  0.00     0.000 OA
ATOM     39   O  SGN F   2     -20.430  47.497 178.2360  0.00  0.00     0.000 OA
BRANCH 20 40
ATOM     40  O4  IDS F   3     -17.360  45.281 172.7100  0.00  0.00     0.000 O
BRANCH 40 44
ATOM     41  C1  IDS F   3     -13.891  45.157 172.3350  0.00  0.00     0.000 C
ATOM     42  C2  IDS F   3     -14.646  43.928 172.7740  0.00  0.00     0.000 C
ATOM     43  C3  IDS F   3     -15.629  44.214 173.9730  0.00  0.00     0.000 C
ATOM     44  C4  IDS F   3     -16.423  45.488 173.7580  0.00  0.00     0.000 C
ATOM     45  C5  IDS F   3     -15.464  46.618 173.3860  0.00  0.00     0.000 C
ATOM     46  O5  IDS F   3     -14.765  46.288 172.2060  0.00  0.00     0.000 O
ATOM     47   O  IDS F   3     -16.003  41.139 171.8450  0.00  0.00     0.000 OA
ATOM     48   O  IDS F   3     -15.730  42.079 169.6900  0.00  0.00     0.000 OA
ATOM     49   O  IDS F   3     -13.842  41.728 171.1450  0.00  0.00     0.000 OA
ATOM     50   O  IDS F   3     -15.366  43.409 171.6500  0.00  0.00     0.000 O
ATOM     51   S  IDS F   3     -15.227  42.009 171.0360  0.00  0.00     0.000 S
ATOM     52   O  IDS F   3     -14.881  44.386 175.1720  0.00  0.00     0.000 O
ATOM     54  HD  IDS F   3     -14.732  43.923 174.4560  0.00  0.00     0.000 HD
ATOM     54   C  IDS F   3     -16.107  48.004 173.2610  0.00  0.00     0.000 C
ATOM     55   O  IDS F   3     -16.415  48.466 172.1650  0.00  0.00     0.000 OA
ATOM     56   O  IDS F   3     -16.344  48.693 174.2620  0.00  0.00     0.000 OA
BRANCH 41 57
ATOM     57  O4  SGN F   4     -12.849  45.390 173.2380  0.00  0.00     0.000 O
BRANCH 57 61
ATOM     58  C1  SGN F   4      -9.248  46.941 172.0670  0.00  0.00     0.000 C
ATOM     59  C2  SGN F   4      -9.809  47.459 173.4010  0.00  0.00     0.000 C
ATOM     60  C3  SGN F   4     -10.908  46.554 173.9300  0.00  0.00     0.000 C
ATOM     61  C4  SGN F   4     -11.952  46.370 172.8310  0.00  0.00     0.000 C
ATOM     62  C5  SGN F   4     -11.274  45.908 171.5270  0.00  0.00     0.000 C
ATOM     63  O5  SGN F   4     -10.284  46.810 171.1350  0.00  0.00     0.000 O
ATOM     64   N  SGN F   4      -8.747  47.629 174.3740  0.00  0.00     0.000 N
ATOM     66  HD  SGN F   4      -9.006  47.787 173.5620  0.00  0.00     0.000 HD
ATOM     66   S  SGN F   4      -7.942  49.046 174.3720  0.00  0.00     0.000 S
ATOM     67   O  SGN F   4      -7.176  49.071 173.1400  0.00  0.00     0.000 OA
ATOM     68   O  SGN F   4      -8.922  50.129 174.4290  0.00  0.00     0.000 OA
ATOM     69   O  SGN F   4      -7.102  48.951 175.5440  0.00  0.00     0.000 OA
ATOM     70   O  SGN F   4     -11.543  47.170 175.0410  0.00  0.00     0.000 O
ATOM     72  HD  SGN F   4     -11.802  47.329 174.2300  0.00  0.00     0.000 HD
ATOM     72   C  SGN F   4     -12.200  45.818 170.3420  0.00  0.00     0.000 C
ATOM     73   O  SGN F   4     -12.741  47.102 170.1340  0.00  0.00     0.000 O
ATOM     74   S  SGN F   4     -13.180  47.683 168.7580  0.00  0.00     0.000 S
ATOM     75   O  SGN F   4     -13.686  46.616 167.9590  0.00  0.00     0.000 OA
ATOM     76   O  SGN F   4     -14.200  48.696 169.0240  0.00  0.00     0.000 OA
ATOM     77   O  SGN F   4     -11.980  48.180 168.2090  0.00  0.00     0.000 OA
BRANCH 58 78
ATOM     78  O4  IDS F   5      -8.563  45.726 172.2520  0.00  0.00     0.000 O
BRANCH 78 82
ATOM     79  C1  IDS F   5      -6.523  42.906 172.0680  0.00  0.00     0.000 C
ATOM     80  C2  IDS F   5      -6.328  43.947 173.1610  0.00  0.00     0.000 C
ATOM     81  C3  IDS F   5      -6.213  45.362 172.5890  0.00  0.00     0.000 C
ATOM     82  C4  IDS F   5      -7.343  45.638 171.5740  0.00  0.00     0.000 C
ATOM     83  C5  IDS F   5      -7.410  44.502 170.5520  0.00  0.00     0.000 C
ATOM     84  O5  IDS F   5      -7.572  43.258 171.2030  0.00  0.00     0.000 O
ATOM     85   O  IDS F   5      -5.299  42.745 171.3950  0.00  0.00     0.000 OA
ATOM     86   O  IDS F   5      -7.453  43.920 173.9940  0.00  0.00     0.000 O
ATOM     87   S  IDS F   5      -7.592  44.496 175.4410  0.00  0.00     0.000 S
ATOM     88   O  IDS F   5      -6.717  45.634 175.5340  0.00  0.00     0.000 OA
ATOM     89   O  IDS F   5      -8.982  44.862 175.5960  0.00  0.00     0.000 OA
ATOM     90   O  IDS F   5      -7.173  43.425 176.3060  0.00  0.00     0.000 OA
ATOM     91   O  IDS F   5      -4.968  45.469 171.9280  0.00  0.00     0.000 O
ATOM     93  HD  IDS F   5      -5.213  45.399 171.1010  0.00  0.00     0.000 HD
ATOM     93   O  IDS F   5      -9.407  43.946 169.3920  0.00  0.00     0.000 OA
ATOM     94   O  IDS F   5      -8.397  45.614 168.6890  0.00  0.00     0.000 OA
ATOM     95   C  IDS F   5      -8.467  44.694 169.4810  0.00  0.00     0.000 C
ENDBRANCH 78 82
ENDBRANCH 58 78
ENDBRANCH 57 61
ENDBRANCH 41 57
ENDBRANCH 40 44
ENDBRANCH 20 40
ENDBRANCH 19 23
ENDBRANCH 1 19
TORSDOF 8
ENDMDL
MODEL 30
REMARK VINA RESULT:      -6.2      3.578     11.642
FFDIST PL LJ 2322 74 36 -1
ROOT
ATOM      1  C1  IDS F   1     -17.118  57.595 169.6500  0.00  0.00     0.000 C
ATOM      2  C2  IDS F   1     -16.311  57.330 168.3680  0.00  0.00     0.000 C
ATOM      3  C3  IDS F   1     -17.034  57.803 167.0840  0.00  0.00     0.000 C
ATOM      4  C4  IDS F   1     -17.811  59.129 167.2540  0.00  0.00     0.000 C
ATOM      5  C5  IDS F   1     -18.484  59.180 168.6300  0.00  0.00     0.000 C
ATOM      6  O5  IDS F   1     -17.553  58.929 169.6300  0.00  0.00     0.000 O
ATOM      7   S  IDS F   1     -13.764  57.741 167.5660  0.00  0.00     0.000 S
ATOM      8   O  IDS F   1     -14.213  57.719 166.2060  0.00  0.00     0.000 OA
ATOM      9   O  IDS F   1     -12.855  58.826 167.7930  0.00  0.00     0.000 OA
ATOM     10   O  IDS F   1     -13.257  56.468 168.0210  0.00  0.00     0.000 OA
ATOM     11   O  IDS F   1     -15.074  58.011 168.4240  0.00  0.00     0.000 O
ATOM     12   O  IDS F   1     -17.952  56.792 166.6750  0.00  0.00     0.000 O
ATOM     14  HD  IDS F   1     -18.716  56.896 166.2800  0.00  0.00     0.000 HD
ATOM     14   O  IDS F   1     -16.882  60.179 167.1420  0.00  0.00     0.000 O
ATOM     16  HD  IDS F   1     -17.645  60.282 166.7470  0.00  0.00     0.000 HD
ATOM     16   O  IDS F   1     -19.177  60.932 170.0850  0.00  0.00     0.000 OA
ATOM     17   O  IDS F   1     -19.956  61.007 168.1450  0.00  0.00     0.000 OA
ATOM     18   C  IDS F   1     -19.247  60.446 168.9650  0.00  0.00     0.000 C
ENDROOT
BRANCH 1 19
ATOM     19  O4  SGN F   2     -16.287  57.430 170.7480  0.00  0.00     0.000 O
BRANCH 19 23
ATOM     20  C1  SGN F   2     -17.352  55.632 174.3570  0.00  0.00     0.000 C
ATOM     21  C2  SGN F   2     -18.431  56.486 173.7090  0.00  0.00     0.000 C
ATOM     22  C3  SGN F   2     -18.180  56.635 172.2020  0.00  0.00     0.000 C
ATOM     23  C4  SGN F   2     -16.754  57.259 172.0690  0.00  0.00     0.000 C
ATOM     24  C5  SGN F   2     -15.813  56.304 172.7250  0.00  0.00     0.000 C
ATOM     25  O5  SGN F   2     -16.099  56.195 174.0820  0.00  0.00     0.000 O
ATOM     26   N  SGN F   2     -19.760  55.945 174.0840  0.00  0.00     0.000 N
ATOM     28  HD  SGN F   2     -20.497  55.773 173.6630  0.00  0.00     0.000 HD
ATOM     28   S  SGN F   2     -20.388  56.394 175.5720  0.00  0.00     0.000 S
ATOM     29   O  SGN F   2     -19.358  56.174 176.5620  0.00  0.00     0.000 OA
ATOM     30   O  SGN F   2     -20.720  57.793 175.4230  0.00  0.00     0.000 OA
ATOM     31   O  SGN F   2     -21.547  55.607 175.7820  0.00  0.00     0.000 OA
ATOM     32   O  SGN F   2     -19.164  57.514 171.6690  0.00  0.00     0.000 O
ATOM     34  HD  SGN F   2     -19.901  57.342 171.2480  0.00  0.00     0.000 HD
ATOM     34   C  SGN F   2     -14.391  56.745 172.6270  0.00  0.00     0.000 C
ATOM     35   O  SGN F   2     -14.369  58.024 173.1630  0.00  0.00     0.000 O
ATOM     36   S  SGN F   2     -13.139  58.870 173.4740  0.00  0.00     0.000 S
ATOM     37   O  SGN F   2     -13.351  60.105 172.7620  0.00  0.00     0.000 OA
ATOM     38   O  SGN F   2     -13.149  58.999 174.9150  0.00  0.00     0.000 OA
ATOM     39   O  SGN F   2     -11.979  58.132 172.9910  0.00  0.00     0.000 OA
BRANCH 20 40
ATOM     40  O4  IDS F   3     -17.401  54.306 173.9050  0.00  0.00     0.000 O
BRANCH 40 44
ATOM     41  C1  IDS F   3     -17.642  50.825 173.7790  0.00  0.00     0.000 C
ATOM     42  C2  IDS F   3     -18.398  51.595 174.8330  0.00  0.00     0.000 C
ATOM     43  C3  IDS F   3     -17.487  52.623 175.6060  0.00  0.00     0.000 C
ATOM     44  C4  IDS F   3     -16.598  53.410 174.6610  0.00  0.00     0.000 C
ATOM     45  C5  IDS F   3     -15.879  52.438 173.7260  0.00  0.00     0.000 C
ATOM     46  O5  IDS F   3     -16.821  51.695 172.9860  0.00  0.00     0.000 O
ATOM     47   O  IDS F   3     -21.233  52.914 175.6730  0.00  0.00     0.000 OA
ATOM     48   O  IDS F   3     -21.727  52.560 173.3870  0.00  0.00     0.000 OA
ATOM     49   O  IDS F   3     -21.117  50.729 174.8270  0.00  0.00     0.000 OA
ATOM     50   O  IDS F   3     -19.493  52.272 174.2050  0.00  0.00     0.000 O
ATOM     51   S  IDS F   3     -20.984  52.109 174.5330  0.00  0.00     0.000 S
ATOM     52   O  IDS F   3     -16.628  51.921 176.4990  0.00  0.00     0.000 O
ATOM     54  HD  IDS F   3     -17.419  51.745 176.1950  0.00  0.00     0.000 HD
ATOM     54   C  IDS F   3     -14.844  53.076 172.7940  0.00  0.00     0.000 C
ATOM     55   O  IDS F   3     -15.118  53.343 171.6270  0.00  0.00     0.000 OA
ATOM     56   O  IDS F   3     -13.704  53.352 173.1930  0.00  0.00     0.000 OA
BRANCH 41 57
ATOM     57  O4  SGN F   4     -16.901  49.819 174.4060  0.00  0.00     0.000 O
BRANCH 57 61
ATOM     58  C1  SGN F   4     -15.358  46.179 173.3480  0.00  0.00     0.000 C
ATOM     59  C2  SGN F   4     -14.515  47.408 172.9740  0.00  0.00     0.000 C
ATOM     60  C3  SGN F   4     -14.957  48.640 173.7450  0.00  0.00     0.000 C
ATOM     61  C4  SGN F   4     -16.461  48.818 173.5470  0.00  0.00     0.000 C
ATOM     62  C5  SGN F   4     -17.200  47.511 173.8920  0.00  0.00     0.000 C
ATOM     63  O5  SGN F   4     -16.715  46.449 173.1290  0.00  0.00     0.000 O
ATOM     64   N  SGN F   4     -13.103  47.140 173.1680  0.00  0.00     0.000 N
ATOM     66  HD  SGN F   4     -13.846  46.852 172.8290  0.00  0.00     0.000 HD
ATOM     66   S  SGN F   4     -12.293  46.439 171.9390  0.00  0.00     0.000 S
ATOM     67   O  SGN F   4     -12.806  45.086 171.8410  0.00  0.00     0.000 OA
ATOM     68   O  SGN F   4     -12.547  47.211 170.7240  0.00  0.00     0.000 OA
ATOM     69   O  SGN F   4     -10.918  46.479 172.3840  0.00  0.00     0.000 OA
ATOM     70   O  SGN F   4     -14.306  49.790 173.2250  0.00  0.00     0.000 O
ATOM     72  HD  SGN F   4     -15.049  49.501 172.8860  0.00  0.00     0.000 HD
ATOM     72   C  SGN F   4     -18.680  47.540 173.6100  0.00  0.00     0.000 C
ATOM     73   O  SGN F   4     -18.839  47.794 172.2330  0.00  0.00     0.000 O
ATOM     74   S  SGN F   4     -20.022  47.291 171.3550  0.00  0.00     0.000 S
ATOM     75   O  SGN F   4     -21.198  47.257 172.1600  0.00  0.00     0.000 OA
ATOM     76   O  SGN F   4     -20.154  48.223 170.2370  0.00  0.00     0.000 OA
ATOM     77   O  SGN F   4     -19.637  45.983 170.9940  0.00  0.00     0.000 OA
BRANCH 58 78
ATOM     78  O4  IDS F   5     -15.118  45.794 174.6800  0.00  0.00     0.000 O
BRANCH 78 82
ATOM     79  C1  IDS F   5     -15.073  43.801 177.5390  0.00  0.00     0.000 C
ATOM     80  C2  IDS F   5     -13.996  44.850 177.2950  0.00  0.00     0.000 C
ATOM     81  C3  IDS F   5     -13.363  44.707 175.9090  0.00  0.00     0.000 C
ATOM     82  C4  IDS F   5     -14.449  44.574 174.8200  0.00  0.00     0.000 C
ATOM     83  C5  IDS F   5     -15.451  43.488 175.2170  0.00  0.00     0.000 C
ATOM     84  O5  IDS F   5     -16.003  43.764 176.4880  0.00  0.00     0.000 O
ATOM     85   O  IDS F   5     -14.438  42.563 177.7410  0.00  0.00     0.000 OA
ATOM     86   O  IDS F   5     -14.598  46.113 177.3540  0.00  0.00     0.000 O
ATOM     87   S  IDS F   5     -13.903  47.500 177.5500  0.00  0.00     0.000 S
ATOM     88   O  IDS F   5     -12.593  47.409 176.9620  0.00  0.00     0.000 OA
ATOM     89   O  IDS F   5     -14.738  48.466 176.8750  0.00  0.00     0.000 OA
ATOM     90   O  IDS F   5     -13.839  47.682 178.9760  0.00  0.00     0.000 OA
ATOM     91   O  IDS F   5     -12.567  43.539 175.9070  0.00  0.00     0.000 O
ATOM     93  HD  IDS F   5     -13.081  42.989 175.4790  0.00  0.00     0.000 HD
ATOM     93   O  IDS F   5     -17.697  43.482 174.4450  0.00  0.00     0.000 OA
ATOM     94   O  IDS F   5     -16.280  42.821 173.0840  0.00  0.00     0.000 OA
ATOM     95   C  IDS F   5     -16.543  43.248 174.1920  0.00  0.00     0.000 C
ENDBRANCH 78 82
ENDBRANCH 58 78
ENDBRANCH 57 61
ENDBRANCH 41 57
ENDBRANCH 40 44
ENDBRANCH 20 40
ENDBRANCH 19 23
ENDBRANCH 1 19
TORSDOF 8
ENDMDL
MODEL 31
REMARK VINA RESULT:      -6.2      4.727     13.071
FFDIST PL LJ 2322 74 36 -1
ROOT
ATOM      1  C1  IDS F   1     -20.710  44.769 171.6640  0.00  0.00     0.000 C
ATOM      2  C2  IDS F   1     -21.349  44.053 170.4620  0.00  0.00     0.000 C
ATOM      3  C3  IDS F   1     -20.980  42.551 170.3820  0.00  0.00     0.000 C
ATOM      4  C4  IDS F   1     -20.906  41.848 171.7570  0.00  0.00     0.000 C
ATOM      5  C5  IDS F   1     -20.282  42.783 172.8000  0.00  0.00     0.000 C
ATOM      6  O5  IDS F   1     -20.948  44.002 172.8140  0.00  0.00     0.000 O
ATOM      7   S  IDS F   1     -23.822  43.915 169.3850  0.00  0.00     0.000 S
ATOM      8   O  IDS F   1     -23.468  42.662 168.7900  0.00  0.00     0.000 OA
ATOM      9   O  IDS F   1     -25.124  43.854 169.9840  0.00  0.00     0.000 OA
ATOM     10   O  IDS F   1     -23.658  45.038 168.4910  0.00  0.00     0.000 OA
ATOM     11   O  IDS F   1     -22.757  44.132 170.5430  0.00  0.00     0.000 O
ATOM     12   O  IDS F   1     -19.714  42.423 169.7410  0.00  0.00     0.000 O
ATOM     14  HD  IDS F   1     -19.103  41.827 169.8850  0.00  0.00     0.000 HD
ATOM     14   O  IDS F   1     -22.221  41.527 172.1370  0.00  0.00     0.000 O
ATOM     16  HD  IDS F   1     -21.610  40.931 172.2810  0.00  0.00     0.000 HD
ATOM     16   O  IDS F   1     -20.430  42.977 175.1680  0.00  0.00     0.000 OA
ATOM     17   O  IDS F   1     -19.852  41.100 174.4490  0.00  0.00     0.000 OA
ATOM     18   C  IDS F   1     -20.185  42.250 174.2150  0.00  0.00     0.000 C
ENDROOT
BRANCH 1 19
ATOM     19  O4  SGN F   2     -21.324  46.000 171.8340  0.00  0.00     0.000 O
BRANCH 19 23
ATOM     20  C1  SGN F   2     -18.284  48.734 172.6560  0.00  0.00     0.000 C
ATOM     21  C2  SGN F   2     -19.152  48.346 173.8420  0.00  0.00     0.000 C
ATOM     22  C3  SGN F   2     -19.836  46.993 173.6020  0.00  0.00     0.000 C
ATOM     23  C4  SGN F   2     -20.654  47.159 172.2820  0.00  0.00     0.000 C
ATOM     24  C5  SGN F   2     -19.670  47.512 171.2170  0.00  0.00     0.000 C
ATOM     25  O5  SGN F   2     -19.070  48.736 171.4960  0.00  0.00     0.000 O
ATOM     26   N  SGN F   2     -18.342  48.442 175.0810  0.00  0.00     0.000 N
ATOM     28  HD  SGN F   2     -18.225  47.946 175.7810  0.00  0.00     0.000 HD
ATOM     28   S  SGN F   2     -18.171  49.955 175.7810  0.00  0.00     0.000 S
ATOM     29   O  SGN F   2     -17.770  50.873 174.7390  0.00  0.00     0.000 OA
ATOM     30   O  SGN F   2     -19.480  50.263 176.3140  0.00  0.00     0.000 OA
ATOM     31   O  SGN F   2     -17.210  49.822 176.8140  0.00  0.00     0.000 OA
ATOM     32   O  SGN F   2     -20.702  46.728 174.6990  0.00  0.00     0.000 O
ATOM     34  HD  SGN F   2     -20.585  46.232 175.3990  0.00  0.00     0.000 HD
ATOM     34   C  SGN F   2     -20.306  47.650 169.8740  0.00  0.00     0.000 C
ATOM     35   O  SGN F   2     -21.319  48.582 170.0460  0.00  0.00     0.000 O
ATOM     36   S  SGN F   2     -22.167  49.229 168.9560  0.00  0.00     0.000 S
ATOM     37   O  SGN F   2     -23.529  48.959 169.3410  0.00  0.00     0.000 OA
ATOM     38   O  SGN F   2     -21.797  50.627 168.9970  0.00  0.00     0.000 OA
ATOM     39   O  SGN F   2     -21.800  48.596 167.6960  0.00  0.00     0.000 OA
BRANCH 20 40
ATOM     40  O4  IDS F   3     -17.195  47.863 172.5060  0.00  0.00     0.000 O
BRANCH 40 44
ATOM     41  C1  IDS F   3     -14.113  46.262 172.8650  0.00  0.00     0.000 C
ATOM     42  C2  IDS F   3     -14.796  46.860 174.0680  0.00  0.00     0.000 C
ATOM     43  C3  IDS F   3     -15.259  48.348 173.8280  0.00  0.00     0.000 C
ATOM     44  C4  IDS F   3     -15.934  48.517 172.4800  0.00  0.00     0.000 C
ATOM     45  C5  IDS F   3     -15.048  47.901 171.3970  0.00  0.00     0.000 C
ATOM     46  O5  IDS F   3     -14.847  46.531 171.6610  0.00  0.00     0.000 O
ATOM     47   O  IDS F   3     -16.689  46.297 176.6330  0.00  0.00     0.000 OA
ATOM     48   O  IDS F   3     -17.088  44.255 175.5060  0.00  0.00     0.000 OA
ATOM     49   O  IDS F   3     -14.861  44.910 176.1500  0.00  0.00     0.000 OA
ATOM     50   O  IDS F   3     -15.917  46.038 174.4120  0.00  0.00     0.000 O
ATOM     51   S  IDS F   3     -16.156  45.324 175.7510  0.00  0.00     0.000 S
ATOM     52   O  IDS F   3     -14.124  49.208 173.8370  0.00  0.00     0.000 O
ATOM     54  HD  IDS F   3     -14.288  48.457 174.2360  0.00  0.00     0.000 HD
ATOM     54   C  IDS F   3     -15.538  48.108 169.9600  0.00  0.00     0.000 C
ATOM     55   O  IDS F   3     -16.158  47.228 169.3670  0.00  0.00     0.000 OA
ATOM     56   O  IDS F   3     -15.332  49.170 169.3580  0.00  0.00     0.000 OA
BRANCH 41 57
ATOM     57  O4  SGN F   4     -12.802  46.744 172.8070  0.00  0.00     0.000 O
BRANCH 57 61
ATOM     58  C1  SGN F   4      -9.493  45.554 170.7150  0.00  0.00     0.000 C
ATOM     59  C2  SGN F   4     -10.179  46.839 170.2260  0.00  0.00     0.000 C
ATOM     60  C3  SGN F   4     -11.119  47.402 171.2780  0.00  0.00     0.000 C
ATOM     61  C4  SGN F   4     -12.078  46.295 171.7100  0.00  0.00     0.000 C
ATOM     62  C5  SGN F   4     -11.287  45.038 172.1210  0.00  0.00     0.000 C
ATOM     63  O5  SGN F   4     -10.459  44.610 171.0840  0.00  0.00     0.000 O
ATOM     64   N  SGN F   4      -9.196  47.821 169.8130  0.00  0.00     0.000 N
ATOM     66  HD  SGN F   4      -9.451  46.996 169.7520  0.00  0.00     0.000 HD
ATOM     66   S  SGN F   4      -8.651  47.745 168.2780  0.00  0.00     0.000 S
ATOM     67   O  SGN F   4      -7.862  46.531 168.1920  0.00  0.00     0.000 OA
ATOM     68   O  SGN F   4      -9.808  47.711 167.3840  0.00  0.00     0.000 OA
ATOM     69   O  SGN F   4      -7.846  48.939 168.1530  0.00  0.00     0.000 OA
ATOM     70   O  SGN F   4     -11.888  48.457 170.7190  0.00  0.00     0.000 O
ATOM     72  HD  SGN F   4     -12.144  47.631 170.6570  0.00  0.00     0.000 HD
ATOM     72   C  SGN F   4     -12.145  43.842 172.4450  0.00  0.00     0.000 C
ATOM     73   O  SGN F   4     -12.896  43.539 171.2910  0.00  0.00     0.000 O
ATOM     74   S  SGN F   4     -13.384  42.120 170.8800  0.00  0.00     0.000 S
ATOM     75   O  SGN F   4     -13.669  41.381 172.0660  0.00  0.00     0.000 OA
ATOM     76   O  SGN F   4     -14.574  42.299 170.0500  0.00  0.00     0.000 OA
ATOM     77   O  SGN F   4     -12.273  41.566 170.2120  0.00  0.00     0.000 OA
BRANCH 58 78
ATOM     78  O4  IDS F   5      -8.612  45.831 171.7770  0.00  0.00     0.000 O
BRANCH 78 82
ATOM     79  C1  IDS F   5      -6.128  45.826 174.2220  0.00  0.00     0.000 C
ATOM     80  C2  IDS F   5      -6.139  46.871 173.1150  0.00  0.00     0.000 C
ATOM     81  C3  IDS F   5      -6.244  46.233 171.7280  0.00  0.00     0.000 C
ATOM     82  C4  IDS F   5      -7.376  45.184 171.6900  0.00  0.00     0.000 C
ATOM     83  C5  IDS F   5      -7.224  44.217 172.8660  0.00  0.00     0.000 C
ATOM     84  O5  IDS F   5      -7.196  44.924 174.0880  0.00  0.00     0.000 O
ATOM     85   O  IDS F   5      -4.876  45.187 174.2060  0.00  0.00     0.000 OA
ATOM     86   O  IDS F   5      -7.268  47.681 173.2920  0.00  0.00     0.000 O
ATOM     87   S  IDS F   5      -7.541  49.095 172.6840  0.00  0.00     0.000 S
ATOM     88   O  IDS F   5      -6.870  49.151 171.4120  0.00  0.00     0.000 OA
ATOM     89   O  IDS F   5      -8.976  49.204 172.5480  0.00  0.00     0.000 OA
ATOM     90   O  IDS F   5      -6.974  50.020 173.6300  0.00  0.00     0.000 OA
ATOM     91   O  IDS F   5      -5.016  45.594 171.4430  0.00  0.00     0.000 O
ATOM     93  HD  IDS F   5      -5.223  44.766 171.5900  0.00  0.00     0.000 HD
ATOM     93   O  IDS F   5      -9.068  43.045 173.7980  0.00  0.00     0.000 OA
ATOM     94   O  IDS F   5      -8.329  42.282 172.0180  0.00  0.00     0.000 OA
ATOM     95   C  IDS F   5      -8.268  43.117 172.9010  0.00  0.00     0.000 C
ENDBRANCH 78 82
ENDBRANCH 58 78
ENDBRANCH 57 61
ENDBRANCH 41 57
ENDBRANCH 40 44
ENDBRANCH 20 40
ENDBRANCH 19 23
ENDBRANCH 1 19
TORSDOF 8
ENDMDL
MODEL 32
REMARK VINA RESULT:      -6.1      2.125      3.301
FFDIST PL LJ 2322 74 36 -1
ROOT
ATOM      1  C1  IDS F   1     -11.388  46.203 174.1700  0.00  0.00     0.000 C
ATOM      2  C2  IDS F   1     -11.429  44.750 174.6720  0.00  0.00     0.000 C
ATOM      3  C3  IDS F   1     -10.181  43.930 174.2660  0.00  0.00     0.000 C
ATOM      4  C4  IDS F   1      -8.860  44.733 174.3120  0.00  0.00     0.000 C
ATOM      5  C5  IDS F   1      -9.089  46.164 173.8130  0.00  0.00     0.000 C
ATOM      6  O5  IDS F   1     -10.142  46.752 174.5040  0.00  0.00     0.000 O
ATOM      7   S  IDS F   1     -11.958  43.532 177.0250  0.00  0.00     0.000 S
ATOM      8   O  IDS F   1     -11.191  42.405 176.5870  0.00  0.00     0.000 OA
ATOM      9   O  IDS F   1     -11.635  43.884 178.3770  0.00  0.00     0.000 OA
ATOM     10   O  IDS F   1     -13.376  43.380 176.7980  0.00  0.00     0.000 OA
ATOM     11   O  IDS F   1     -11.501  44.727 176.0840  0.00  0.00     0.000 O
ATOM     12   O  IDS F   1     -10.365  43.440 172.9400  0.00  0.00     0.000 O
ATOM     14  HD  IDS F   1      -9.762  43.308 172.3330  0.00  0.00     0.000 HD
ATOM     14   O  IDS F   1      -8.431  44.761 175.6510  0.00  0.00     0.000 O
ATOM     16  HD  IDS F   1      -7.828  44.629 175.0440  0.00  0.00     0.000 HD
ATOM     16   O  IDS F   1      -8.020  48.256 174.1970  0.00  0.00     0.000 OA
ATOM     17   O  IDS F   1      -6.778  46.719 173.5110  0.00  0.00     0.000 OA
ATOM     18   C  IDS F   1      -7.891  47.092 173.8440  0.00  0.00     0.000 C
ENDROOT
BRANCH 1 19
ATOM     19  O4  SGN F   2     -12.369  46.934 174.8240  0.00  0.00     0.000 O
BRANCH 19 23
ATOM     20  C1  SGN F   2     -16.436  47.680 174.2810  0.00  0.00     0.000 C
ATOM     21  C2  SGN F   2     -16.089  46.778 175.4550  0.00  0.00     0.000 C
ATOM     22  C3  SGN F   2     -14.638  47.001 175.9070  0.00  0.00     0.000 C
ATOM     23  C4  SGN F   2     -13.754  46.726 174.6490  0.00  0.00     0.000 C
ATOM     24  C5  SGN F   2     -14.194  47.696 173.6040  0.00  0.00     0.000 C
ATOM     25  O5  SGN F   2     -15.518  47.459 173.2470  0.00  0.00     0.000 O
ATOM     26   N  SGN F   2     -17.119  46.942 176.5080  0.00  0.00     0.000 N
ATOM     28  HD  SGN F   2     -17.111  47.042 177.3680  0.00  0.00     0.000 HD
ATOM     28   S  SGN F   2     -18.542  46.073 176.3430  0.00  0.00     0.000 S
ATOM     29   O  SGN F   2     -19.029  46.289 174.9990  0.00  0.00     0.000 OA
ATOM     30   O  SGN F   2     -18.163  44.699 176.5770  0.00  0.00     0.000 OA
ATOM     31   O  SGN F   2     -19.428  46.544 177.3440  0.00  0.00     0.000 OA
ATOM     32   O  SGN F   2     -14.344  46.069 176.9410  0.00  0.00     0.000 O
ATOM     34  HD  SGN F   2     -14.336  46.169 177.8010  0.00  0.00     0.000 HD
ATOM     34   C  SGN F   2     -13.392  47.588 172.3500  0.00  0.00     0.000 C
ATOM     35   O  SGN F   2     -13.490  46.257 171.9700  0.00  0.00     0.000 O
ATOM     36   S  SGN F   2     -13.010  45.637 170.6620  0.00  0.00     0.000 S
ATOM     37   O  SGN F   2     -12.138  44.561 171.0630  0.00  0.00     0.000 OA
ATOM     38   O  SGN F   2     -14.224  45.212 170.0000  0.00  0.00     0.000 OA
ATOM     39   O  SGN F   2     -12.313  46.683 169.9240  0.00  0.00     0.000 OA
BRANCH 20 40
ATOM     40  O4  IDS F   3     -16.435  49.033 174.6520  0.00  0.00     0.000 O
BRANCH 40 44
ATOM     41  C1  IDS F   3     -16.980  52.482 174.6240  0.00  0.00     0.000 C
ATOM     42  C2  IDS F   3     -17.033  51.721 175.9250  0.00  0.00     0.000 C
ATOM     43  C3  IDS F   3     -17.956  50.445 175.8460  0.00  0.00     0.000 C
ATOM     44  C4  IDS F   3     -17.713  49.651 174.5760  0.00  0.00     0.000 C
ATOM     45  C5  IDS F   3     -17.763  50.598 173.3770  0.00  0.00     0.000 C
ATOM     46  O5  IDS F   3     -16.778  51.598 173.5110  0.00  0.00     0.000 O
ATOM     47   O  IDS F   3     -15.411  50.835 178.5820  0.00  0.00     0.000 OA
ATOM     48   O  IDS F   3     -13.553  51.593 177.3290  0.00  0.00     0.000 OA
ATOM     49   O  IDS F   3     -15.395  53.060 177.8380  0.00  0.00     0.000 OA
ATOM     50   O  IDS F   3     -15.700  51.351 176.2920  0.00  0.00     0.000 O
ATOM     51   S  IDS F   3     -14.961  51.735 177.5820  0.00  0.00     0.000 S
ATOM     52   O  IDS F   3     -19.323  50.845 175.8310  0.00  0.00     0.000 O
ATOM     54  HD  IDS F   3     -18.616  51.203 176.1790  0.00  0.00     0.000 HD
ATOM     54   C  IDS F   3     -17.661  49.920 172.0070  0.00  0.00     0.000 C
ATOM     55   O  IDS F   3     -16.595  49.876 171.3970  0.00  0.00     0.000 OA
ATOM     56   O  IDS F   3     -18.647  49.388 171.4790  0.00  0.00     0.000 OA
BRANCH 41 57
ATOM     57  O4  SGN F   4     -18.150  53.237 174.4980  0.00  0.00     0.000 O
BRANCH 57 61
ATOM     58  C1  SGN F   4     -19.165  56.801 172.7620  0.00  0.00     0.000 C
ATOM     59  C2  SGN F   4     -19.270  55.556 171.8670  0.00  0.00     0.000 C
ATOM     60  C3  SGN F   4     -19.267  54.279 172.6900  0.00  0.00     0.000 C
ATOM     61  C4  SGN F   4     -18.047  54.300 173.6090  0.00  0.00     0.000 C
ATOM     62  C5  SGN F   4     -18.011  55.614 174.4120  0.00  0.00     0.000 C
ATOM     63  O5  SGN F   4     -18.017  56.718 173.5590  0.00  0.00     0.000 O
ATOM     64   N  SGN F   4     -20.439  55.634 171.0130  0.00  0.00     0.000 N
ATOM     66  HD  SGN F   4     -19.739  56.051 171.3070  0.00  0.00     0.000 HD
ATOM     66   S  SGN F   4     -20.284  56.418 169.5920  0.00  0.00     0.000 S
ATOM     67   O  SGN F   4     -20.107  57.819 169.9230  0.00  0.00     0.000 OA
ATOM     68   O  SGN F   4     -19.124  55.870 168.8920  0.00  0.00     0.000 OA
ATOM     69   O  SGN F   4     -21.544  56.159 168.9320  0.00  0.00     0.000 OA
ATOM     70   O  SGN F   4     -19.150  53.155 171.8290  0.00  0.00     0.000 O
ATOM     72  HD  SGN F   4     -18.450  53.572 172.1230  0.00  0.00     0.000 HD
ATOM     72   C  SGN F   4     -16.777  55.792 175.2580  0.00  0.00     0.000 C
ATOM     73   O  SGN F   4     -15.666  55.767 174.3910  0.00  0.00     0.000 O
ATOM     74   S  SGN F   4     -14.326  56.523 174.6220  0.00  0.00     0.000 S
ATOM     75   O  SGN F   4     -14.068  56.565 176.0230  0.00  0.00     0.000 OA
ATOM     76   O  SGN F   4     -13.288  55.789 173.8990  0.00  0.00     0.000 OA
ATOM     77   O  SGN F   4     -14.586  57.819 174.1310  0.00  0.00     0.000 OA
BRANCH 58 78
ATOM     78  O4  IDS F   5     -20.326  56.953 173.5440  0.00  0.00     0.000 O
BRANCH 78 82
ATOM     79  C1  IDS F   5     -22.987  58.050 175.5090  0.00  0.00     0.000 C
ATOM     80  C2  IDS F   5     -23.209  57.575 174.0800  0.00  0.00     0.000 C
ATOM     81  C3  IDS F   5     -22.277  58.280 173.0930  0.00  0.00     0.000 C
ATOM     82  C4  IDS F   5     -20.820  58.260 173.6020  0.00  0.00     0.000 C
ATOM     83  C5  IDS F   5     -20.770  58.758 175.0480  0.00  0.00     0.000 C
ATOM     84  O5  IDS F   5     -21.630  57.992 175.8660  0.00  0.00     0.000 O
ATOM     85   O  IDS F   5     -23.522  59.344 175.6270  0.00  0.00     0.000 OA
ATOM     86   O  IDS F   5     -22.921  56.206 174.0260  0.00  0.00     0.000 O
ATOM     87   S  IDS F   5     -23.341  55.177 172.9260  0.00  0.00     0.000 S
ATOM     88   O  IDS F   5     -23.423  55.894 171.6800  0.00  0.00     0.000 OA
ATOM     89   O  IDS F   5     -22.308  54.166 172.9050  0.00  0.00     0.000 OA
ATOM     90   O  IDS F   5     -24.626  54.688 173.3490  0.00  0.00     0.000 OA
ATOM     91   O  IDS F   5     -22.701  59.623 172.9690  0.00  0.00     0.000 O
ATOM     93  HD  IDS F   5     -22.114  60.027 173.4610  0.00  0.00     0.000 HD
ATOM     93   O  IDS F   5     -19.056  58.112 176.5610  0.00  0.00     0.000 OA
ATOM     94   O  IDS F   5     -18.532  59.568 175.1810  0.00  0.00     0.000 OA
ATOM     95   C  IDS F   5     -19.372  58.815 175.6350  0.00  0.00     0.000 C
ENDBRANCH 78 82
ENDBRANCH 58 78
ENDBRANCH 57 61
ENDBRANCH 41 57
ENDBRANCH 40 44
ENDBRANCH 20 40
ENDBRANCH 19 23
ENDBRANCH 1 19
TORSDOF 8
ENDMDL
MODEL 33
REMARK VINA RESULT:      -6.1      4.632     12.699
FFDIST PL LJ 2322 74 36 -1
ROOT
ATOM      1  C1  IDS F   1     -22.447  46.223 174.6450  0.00  0.00     0.000 C
ATOM      2  C2  IDS F   1     -22.296  44.740 174.2670  0.00  0.00     0.000 C
ATOM      3  C3  IDS F   1     -21.975  43.832 175.4790  0.00  0.00     0.000 C
ATOM      4  C4  IDS F   1     -22.714  44.233 176.7770  0.00  0.00     0.000 C
ATOM      5  C5  IDS F   1     -22.783  45.759 176.9010  0.00  0.00     0.000 C
ATOM      6  O5  IDS F   1     -23.315  46.313 175.7430  0.00  0.00     0.000 O
ATOM      7   S  IDS F   1     -23.709  42.963 172.8020  0.00  0.00     0.000 S
ATOM      8   O  IDS F   1     -23.100  41.902 173.5450  0.00  0.00     0.000 OA
ATOM      9   O  IDS F   1     -25.120  42.752 172.6570  0.00  0.00     0.000 OA
ATOM     10   O  IDS F   1     -23.042  43.240 171.5510  0.00  0.00     0.000 OA
ATOM     11   O  IDS F   1     -23.495  44.260 173.6940  0.00  0.00     0.000 O
ATOM     12   O  IDS F   1     -20.572  43.877 175.7280  0.00  0.00     0.000 O
ATOM     14  HD  IDS F   1     -20.165  43.817 176.4890  0.00  0.00     0.000 HD
ATOM     14   O  IDS F   1     -24.016  43.706 176.7000  0.00  0.00     0.000 O
ATOM     16  HD  IDS F   1     -23.608  43.646 177.4620  0.00  0.00     0.000 HD
ATOM     16   O  IDS F   1     -24.257  47.281 177.9880  0.00  0.00     0.000 OA
ATOM     17   O  IDS F   1     -23.406  45.816 179.2140  0.00  0.00     0.000 OA
ATOM     18   C  IDS F   1     -23.524  46.308 178.1040  0.00  0.00     0.000 C
ENDROOT
BRANCH 1 19
ATOM     19  O4  SGN F   2     -23.026  46.902 173.5830  0.00  0.00     0.000 O
BRANCH 19 23
ATOM     20  C1  SGN F   2     -20.173  49.558 172.1020  0.00  0.00     0.000 C
ATOM     21  C2  SGN F   2     -21.223  50.171 173.0150  0.00  0.00     0.000 C
ATOM     22  C3  SGN F   2     -21.853  49.102 173.9200  0.00  0.00     0.000 C
ATOM     23  C4  SGN F   2     -22.443  48.024 172.9550  0.00  0.00     0.000 C
ATOM     24  C5  SGN F   2     -21.298  47.505 172.1510  0.00  0.00     0.000 C
ATOM     25  O5  SGN F   2     -20.757  48.519 171.3660  0.00  0.00     0.000 O
ATOM     26   N  SGN F   2     -20.629  51.333 173.7180  0.00  0.00     0.000 N
ATOM     28  HD  SGN F   2     -20.628  51.625 174.5330  0.00  0.00     0.000 HD
ATOM     28   S  SGN F   2     -20.582  52.794 172.8990  0.00  0.00     0.000 S
ATOM     29   O  SGN F   2     -20.018  52.540 171.5920  0.00  0.00     0.000 OA
ATOM     30   O  SGN F   2     -21.961  53.222 172.8300  0.00  0.00     0.000 OA
ATOM     31   O  SGN F   2     -19.804  53.680 173.6850  0.00  0.00     0.000 OA
ATOM     32   O  SGN F   2     -22.887  49.713 174.6820  0.00  0.00     0.000 O
ATOM     34  HD  SGN F   2     -22.886  50.006 175.4970  0.00  0.00     0.000 HD
ATOM     34   C  SGN F   2     -21.705  46.418 171.2140  0.00  0.00     0.000 C
ATOM     35   O  SGN F   2     -22.735  46.956 170.4570  0.00  0.00     0.000 O
ATOM     36   S  SGN F   2     -23.395  46.337 169.2290  0.00  0.00     0.000 S
ATOM     37   O  SGN F   2     -24.801  46.304 169.5430  0.00  0.00     0.000 OA
ATOM     38   O  SGN F   2     -23.042  47.228 168.1450  0.00  0.00     0.000 OA
ATOM     39   O  SGN F   2     -22.823  45.007 169.0610  0.00  0.00     0.000 OA
BRANCH 20 40
ATOM     40  O4  IDS F   3     -19.071  49.083 172.8280  0.00  0.00     0.000 O
BRANCH 40 44
ATOM     41  C1  IDS F   3     -15.671  48.582 173.4410  0.00  0.00     0.000 C
ATOM     42  C2  IDS F   3     -16.110  49.590 172.4090  0.00  0.00     0.000 C
ATOM     43  C3  IDS F   3     -17.158  49.000 171.3900  0.00  0.00     0.000 C
ATOM     44  C4  IDS F   3     -18.236  48.198 172.0930  0.00  0.00     0.000 C
ATOM     45  C5  IDS F   3     -17.577  47.196 173.0410  0.00  0.00     0.000 C
ATOM     46  O5  IDS F   3     -16.793  47.879 173.9940  0.00  0.00     0.000 O
ATOM     47   O  IDS F   3     -16.720  52.710 171.7970  0.00  0.00     0.000 OA
ATOM     48   O  IDS F   3     -16.640  52.872 174.1560  0.00  0.00     0.000 OA
ATOM     49   O  IDS F   3     -14.756  52.053 172.8990  0.00  0.00     0.000 OA
ATOM     50   O  IDS F   3     -16.656  50.728 173.0860  0.00  0.00     0.000 O
ATOM     51   S  IDS F   3     -16.164  52.179 172.9890  0.00  0.00     0.000 S
ATOM     52   O  IDS F   3     -16.501  48.115 170.4890  0.00  0.00     0.000 O
ATOM     54  HD  IDS F   3     -16.228  48.816 170.9180  0.00  0.00     0.000 HD
ATOM     54   C  IDS F   3     -18.537  46.222 173.7310  0.00  0.00     0.000 C
ATOM     55   O  IDS F   3     -18.926  46.419 174.8790  0.00  0.00     0.000 OA
ATOM     56   O  IDS F   3     -18.958  45.214 173.1470  0.00  0.00     0.000 OA
BRANCH 41 57
ATOM     57  O4  SGN F   4     -14.738  47.721 172.8570  0.00  0.00     0.000 O
BRANCH 57 61
ATOM     58  C1  SGN F   4     -11.229  46.019 174.0990  0.00  0.00     0.000 C
ATOM     59  C2  SGN F   4     -12.489  45.149 174.2290  0.00  0.00     0.000 C
ATOM     60  C3  SGN F   4     -13.631  45.697 173.3920  0.00  0.00     0.000 C
ATOM     61  C4  SGN F   4     -13.835  47.166 173.7560  0.00  0.00     0.000 C
ATOM     62  C5  SGN F   4     -12.500  47.929 173.6500  0.00  0.00     0.000 C
ATOM     63  O5  SGN F   4     -11.526  47.340 174.4560  0.00  0.00     0.000 O
ATOM     64   N  SGN F   4     -12.197  43.769 173.8890  0.00  0.00     0.000 N
ATOM     66  HD  SGN F   4     -11.949  44.461 174.3480  0.00  0.00     0.000 HD
ATOM     66   S  SGN F   4     -11.631  42.804 175.0750  0.00  0.00     0.000 S
ATOM     67   O  SGN F   4     -10.298  43.287 175.3830  0.00  0.00     0.000 OA
ATOM     68   O  SGN F   4     -12.530  42.913 176.2220  0.00  0.00     0.000 OA
ATOM     69   O  SGN F   4     -11.618  41.496 174.4600  0.00  0.00     0.000 OA
ATOM     70   O  SGN F   4     -14.829  44.998 173.6980  0.00  0.00     0.000 O
ATOM     72  HD  SGN F   4     -14.581  45.689 174.1570  0.00  0.00     0.000 HD
ATOM     72   C  SGN F   4     -12.564  49.361 174.1110  0.00  0.00     0.000 C
ATOM     73   O  SGN F   4     -12.966  49.350 175.4620  0.00  0.00     0.000 O
ATOM     74   S  SGN F   4     -12.566  50.408 176.5300  0.00  0.00     0.000 S
ATOM     75   O  SGN F   4     -12.448  51.675 175.8880  0.00  0.00     0.000 OA
ATOM     76   O  SGN F   4     -13.614  50.409 177.5490  0.00  0.00     0.000 OA
ATOM     77   O  SGN F   4     -11.303  49.967 176.9790  0.00  0.00     0.000 OA
BRANCH 58 78
ATOM     78  O4  IDS F   5     -10.702  45.943 172.7970  0.00  0.00     0.000 O
BRANCH 78 82
ATOM     79  C1  IDS F   5      -8.778  45.928 169.8910  0.00  0.00     0.000 C
ATOM     80  C2  IDS F   5      -9.191  44.628 170.5660  0.00  0.00     0.000 C
ATOM     81  C3  IDS F   5      -8.838  44.621 172.0550  0.00  0.00     0.000 C
ATOM     82  C4  IDS F   5      -9.304  45.925 172.7370  0.00  0.00     0.000 C
ATOM     83  C5  IDS F   5      -8.814  47.132 171.9350  0.00  0.00     0.000 C
ATOM     84  O5  IDS F   5      -9.251  47.047 170.5950  0.00  0.00     0.000 O
ATOM     85   O  IDS F   5      -7.378  45.926 169.7590  0.00  0.00     0.000 OA
ATOM     86   O  IDS F   5     -10.582  44.507 170.4630  0.00  0.00     0.000 O
ATOM     87   S  IDS F   5     -11.451  43.219 170.6420  0.00  0.00     0.000 S
ATOM     88   O  IDS F   5     -10.774  42.375 171.5910  0.00  0.00     0.000 OA
ATOM     89   O  IDS F   5     -12.736  43.666 171.1300  0.00  0.00     0.000 OA
ATOM     90   O  IDS F   5     -11.501  42.622 169.3340  0.00  0.00     0.000 OA
ATOM     91   O  IDS F   5      -7.433  44.518 172.1740  0.00  0.00     0.000 O
ATOM     93  HD  IDS F   5      -7.223  45.337 172.3610  0.00  0.00     0.000 HD
ATOM     93   O  IDS F   5      -9.932  49.227 171.9740  0.00  0.00     0.000 OA
ATOM     94   O  IDS F   5      -8.748  48.813 173.6240  0.00  0.00     0.000 OA
ATOM     95   C  IDS F   5      -9.187  48.471 172.5430  0.00  0.00     0.000 C
ENDBRANCH 78 82
ENDBRANCH 58 78
ENDBRANCH 57 61
ENDBRANCH 41 57
ENDBRANCH 40 44
ENDBRANCH 20 40
ENDBRANCH 19 23
ENDBRANCH 1 19
TORSDOF 8
ENDMDL
MODEL 34
REMARK VINA RESULT:      -6.1      3.846     11.515
FFDIST PL LJ 2322 74 36 -1
ROOT
ATOM      1  C1  IDS F   1     -17.007  58.395 169.4370  0.00  0.00     0.000 C
ATOM      2  C2  IDS F   1     -15.997  58.021 168.3390  0.00  0.00     0.000 C
ATOM      3  C3  IDS F   1     -16.669  57.643 166.9970  0.00  0.00     0.000 C
ATOM      4  C4  IDS F   1     -17.911  58.497 166.6540  0.00  0.00     0.000 C
ATOM      5  C5  IDS F   1     -18.728  58.782 167.9190  0.00  0.00     0.000 C
ATOM      6  O5  IDS F   1     -17.914  59.323 168.9060  0.00  0.00     0.000 O
ATOM      7   S  IDS F   1     -13.722  59.097 167.3560  0.00  0.00     0.000 S
ATOM      8   O  IDS F   1     -13.943  58.388 166.1320  0.00  0.00     0.000 OA
ATOM      9   O  IDS F   1     -13.338  60.456 167.1060  0.00  0.00     0.000 OA
ATOM     10   O  IDS F   1     -12.830  58.410 168.2610  0.00  0.00     0.000 OA
ATOM     11   O  IDS F   1     -15.136  59.112 168.0800  0.00  0.00     0.000 O
ATOM     12   O  IDS F   1     -17.064  56.274 167.0510  0.00  0.00     0.000 O
ATOM     14  HD  IDS F   1     -17.749  55.903 166.6730  0.00  0.00     0.000 HD
ATOM     14   O  IDS F   1     -17.450  59.708 166.1060  0.00  0.00     0.000 O
ATOM     16  HD  IDS F   1     -18.135  59.337 165.7270  0.00  0.00     0.000 HD
ATOM     16   O  IDS F   1     -20.229  60.506 168.5840  0.00  0.00     0.000 OA
ATOM     17   O  IDS F   1     -20.711  59.527 166.7990  0.00  0.00     0.000 OA
ATOM     18   C  IDS F   1     -19.956  59.653 167.7500  0.00  0.00     0.000 C
ENDROOT
BRANCH 1 19
ATOM     19  O4  SGN F   2     -16.331  59.005 170.4830  0.00  0.00     0.000 O
BRANCH 19 23
ATOM     20  C1  SGN F   2     -16.684  56.674 173.9230  0.00  0.00     0.000 C
ATOM     21  C2  SGN F   2     -17.782  57.705 173.7170  0.00  0.00     0.000 C
ATOM     22  C3  SGN F   2     -17.891  58.103 172.2380  0.00  0.00     0.000 C
ATOM     23  C4  SGN F   2     -16.478  58.635 171.8370  0.00  0.00     0.000 C
ATOM     24  C5  SGN F   2     -15.522  57.512 172.0700  0.00  0.00     0.000 C
ATOM     25  O5  SGN F   2     -15.479  57.184 173.4220  0.00  0.00     0.000 O
ATOM     26   N  SGN F   2     -19.033  57.204 174.3370  0.00  0.00     0.000 N
ATOM     28  HD  SGN F   2     -19.865  57.164 174.1010  0.00  0.00     0.000 HD
ATOM     28   S  SGN F   2     -19.223  57.425 175.9870  0.00  0.00     0.000 S
ATOM     29   O  SGN F   2     -18.015  56.958 176.6300  0.00  0.00     0.000 OA
ATOM     30   O  SGN F   2     -19.417  58.848 176.1480  0.00  0.00     0.000 OA
ATOM     31   O  SGN F   2     -20.379  56.699 176.3680  0.00  0.00     0.000 OA
ATOM     32   O  SGN F   2     -18.866  59.132 172.1210  0.00  0.00     0.000 O
ATOM     34  HD  SGN F   2     -19.698  59.091 171.8850  0.00  0.00     0.000 HD
ATOM     34   C  SGN F   2     -14.126  57.860 171.6760  0.00  0.00     0.000 C
ATOM     35   O  SGN F   2     -13.827  59.018 172.3780  0.00  0.00     0.000 O
ATOM     36   S  SGN F   2     -12.469  59.704 172.4860  0.00  0.00     0.000 S
ATOM     37   O  SGN F   2     -12.704  61.058 172.0520  0.00  0.00     0.000 OA
ATOM     38   O  SGN F   2     -12.111  59.573 173.8820  0.00  0.00     0.000 OA
ATOM     39   O  SGN F   2     -11.555  58.981 171.6100  0.00  0.00     0.000 OA
BRANCH 20 40
ATOM     40  O4  IDS F   3     -16.995  55.457 173.3010  0.00  0.00     0.000 O
BRANCH 40 44
ATOM     41  C1  IDS F   3     -17.698  52.140 172.4650  0.00  0.00     0.000 C
ATOM     42  C2  IDS F   3     -18.468  52.819 173.5700  0.00  0.00     0.000 C
ATOM     43  C3  IDS F   3     -17.529  53.530 174.6180  0.00  0.00     0.000 C
ATOM     44  C4  IDS F   3     -16.426  54.321 173.9400  0.00  0.00     0.000 C
ATOM     45  C5  IDS F   3     -15.736  53.432 172.9060  0.00  0.00     0.000 C
ATOM     46  O5  IDS F   3     -16.670  52.996 171.9450  0.00  0.00     0.000 O
ATOM     47   O  IDS F   3     -21.176  54.401 174.3720  0.00  0.00     0.000 OA
ATOM     48   O  IDS F   3     -21.419  54.550 172.0230  0.00  0.00     0.000 OA
ATOM     49   O  IDS F   3     -21.257  52.415 173.1260  0.00  0.00     0.000 OA
ATOM     50   O  IDS F   3     -19.369  53.764 172.9840  0.00  0.00     0.000 O
ATOM     51   S  IDS F   3     -20.898  53.786 173.1250  0.00  0.00     0.000 S
ATOM     52   O  IDS F   3     -16.896  52.550 175.4340  0.00  0.00     0.000 O
ATOM     54  HD  IDS F   3     -17.659  52.561 175.0250  0.00  0.00     0.000 HD
ATOM     54   C  IDS F   3     -14.512  54.054 172.2260  0.00  0.00     0.000 C
ATOM     55   O  IDS F   3     -14.596  54.568 171.1130  0.00  0.00     0.000 OA
ATOM     56   O  IDS F   3     -13.405  54.066 172.7810  0.00  0.00     0.000 OA
BRANCH 41 57
ATOM     57  O4  SGN F   4     -17.189  50.931 172.9500  0.00  0.00     0.000 O
BRANCH 57 61
ATOM     58  C1  SGN F   4     -16.368  47.206 171.4680  0.00  0.00     0.000 C
ATOM     59  C2  SGN F   4     -15.645  48.381 170.7900  0.00  0.00     0.000 C
ATOM     60  C3  SGN F   4     -15.698  49.634 171.6470  0.00  0.00     0.000 C
ATOM     61  C4  SGN F   4     -17.156  49.910 172.0090  0.00  0.00     0.000 C
ATOM     62  C5  SGN F   4     -17.797  48.651 172.6230  0.00  0.00     0.000 C
ATOM     63  O5  SGN F   4     -17.691  47.565 171.7540  0.00  0.00     0.000 O
ATOM     64   N  SGN F   4     -14.279  48.022 170.4600  0.00  0.00     0.000 N
ATOM     66  HD  SGN F   4     -15.111  47.784 170.4210  0.00  0.00     0.000 HD
ATOM     66   S  SGN F   4     -14.019  47.278 169.0330  0.00  0.00     0.000 S
ATOM     67   O  SGN F   4     -14.615  45.960 169.1530  0.00  0.00     0.000 OA
ATOM     68   O  SGN F   4     -14.651  48.071 167.9820  0.00  0.00     0.000 OA
ATOM     69   O  SGN F   4     -12.577  47.227 168.9450  0.00  0.00     0.000 OA
ATOM     70   O  SGN F   4     -15.212  50.744 170.9050  0.00  0.00     0.000 O
ATOM     72  HD  SGN F   4     -16.044  50.505 170.8650  0.00  0.00     0.000 HD
ATOM     72   C  SGN F   4     -19.273  48.776 172.8990  0.00  0.00     0.000 C
ATOM     73   O  SGN F   4     -19.909  49.048 171.6710  0.00  0.00     0.000 O
ATOM     74   S  SGN F   4     -21.359  48.627 171.2950  0.00  0.00     0.000 S
ATOM     75   O  SGN F   4     -22.159  48.664 172.4740  0.00  0.00     0.000 OA
ATOM     76   O  SGN F   4     -21.832  49.572 170.2850  0.00  0.00     0.000 OA
ATOM     77   O  SGN F   4     -21.214  47.299 170.8420  0.00  0.00     0.000 OA
BRANCH 58 78
ATOM     78  O4  IDS F   5     -15.682  46.799 172.6270  0.00  0.00     0.000 O
BRANCH 78 82
ATOM     79  C1  IDS F   5     -14.184  45.131 175.2960  0.00  0.00     0.000 C
ATOM     80  C2  IDS F   5     -13.353  45.665 174.1370  0.00  0.00     0.000 C
ATOM     81  C3  IDS F   5     -13.896  45.200 172.7830  0.00  0.00     0.000 C
ATOM     82  C4  IDS F   5     -15.420  45.427 172.6950  0.00  0.00     0.000 C
ATOM     83  C5  IDS F   5     -16.103  44.840 173.9320  0.00  0.00     0.000 C
ATOM     84  O5  IDS F   5     -15.552  45.389 175.1100  0.00  0.00     0.000 O
ATOM     85   O  IDS F   5     -13.907  43.759 175.4350  0.00  0.00     0.000 OA
ATOM     86   O  IDS F   5     -13.422  47.063 174.1600  0.00  0.00     0.000 O
ATOM     87   S  IDS F   5     -12.473  48.084 173.4510  0.00  0.00     0.000 S
ATOM     88   O  IDS F   5     -11.992  47.457 172.2480  0.00  0.00     0.000 OA
ATOM     89   O  IDS F   5     -13.276  49.252 173.1720  0.00  0.00     0.000 OA
ATOM     90   O  IDS F   5     -11.412  48.318 174.3940  0.00  0.00     0.000 OA
ATOM     91   O  IDS F   5     -13.630  43.818 172.6540  0.00  0.00     0.000 O
ATOM     93  HD  IDS F   5     -14.410  43.483 172.8260  0.00  0.00     0.000 HD
ATOM     93   O  IDS F   5     -18.182  45.653 174.7460  0.00  0.00     0.000 OA
ATOM     94   O  IDS F   5     -18.292  44.410 173.0900  0.00  0.00     0.000 OA
ATOM     95   C  IDS F   5     -17.614  44.976 173.9270  0.00  0.00     0.000 C
ENDBRANCH 78 82
ENDBRANCH 58 78
ENDBRANCH 57 61
ENDBRANCH 41 57
ENDBRANCH 40 44
ENDBRANCH 20 40
ENDBRANCH 19 23
ENDBRANCH 1 19
TORSDOF 8
ENDMDL
MODEL 35
REMARK VINA RESULT:      -6.1      3.539      7.961
FFDIST PL LJ 2322 74 36 -1
ROOT
ATOM      1  C1  IDS F   1     -17.541  44.031 174.6080  0.00  0.00     0.000 C
ATOM      2  C2  IDS F   1     -18.440  45.279 174.6040  0.00  0.00     0.000 C
ATOM      3  C3  IDS F   1     -19.951  44.941 174.6240  0.00  0.00     0.000 C
ATOM      4  C4  IDS F   1     -20.311  43.725 175.5090  0.00  0.00     0.000 C
ATOM      5  C5  IDS F   1     -19.237  42.639 175.3840  0.00  0.00     0.000 C
ATOM      6  O5  IDS F   1     -17.979  43.174 175.6290  0.00  0.00     0.000 O
ATOM      7   S  IDS F   1     -18.533  47.601 175.9820  0.00  0.00     0.000 S
ATOM      8   O  IDS F   1     -19.925  47.708 175.6630  0.00  0.00     0.000 OA
ATOM      9   O  IDS F   1     -18.294  47.902 177.3630  0.00  0.00     0.000 OA
ATOM     10   O  IDS F   1     -17.682  48.343 175.0810  0.00  0.00     0.000 OA
ATOM     11   O  IDS F   1     -18.176  46.071 175.7440  0.00  0.00     0.000 O
ATOM     12   O  IDS F   1     -20.378  44.671 173.2910  0.00  0.00     0.000 O
ATOM     14  HD  IDS F   1     -20.992  44.117 173.0310  0.00  0.00     0.000 HD
ATOM     14   O  IDS F   1     -20.373  44.178 176.8390  0.00  0.00     0.000 O
ATOM     16  HD  IDS F   1     -20.987  43.624 176.5790  0.00  0.00     0.000 HD
ATOM     16   O  IDS F   1     -18.470  40.880 176.7930  0.00  0.00     0.000 OA
ATOM     17   O  IDS F   1     -20.520  40.875 176.3760  0.00  0.00     0.000 OA
ATOM     18   C  IDS F   1     -19.426  41.398 176.2340  0.00  0.00     0.000 C
ENDROOT
BRANCH 1 19
ATOM     19  O4  SGN F   2     -16.240  44.414 174.8980  0.00  0.00     0.000 O
BRANCH 19 23
ATOM     20  C1  SGN F   2     -14.328  47.393 172.6920  0.00  0.00     0.000 C
ATOM     21  C2  SGN F   2     -14.967  46.282 171.8730  0.00  0.00     0.000 C
ATOM     22  C3  SGN F   2     -16.072  45.577 172.6730  0.00  0.00     0.000 C
ATOM     23  C4  SGN F   2     -15.384  45.052 173.9740  0.00  0.00     0.000 C
ATOM     24  C5  SGN F   2     -14.832  46.250 174.6730  0.00  0.00     0.000 C
ATOM     25  O5  SGN F   2     -13.851  46.857 173.8950  0.00  0.00     0.000 O
ATOM     26   N  SGN F   2     -15.381  46.832 170.5600  0.00  0.00     0.000 N
ATOM     28  HD  SGN F   2     -16.088  46.775 170.0630  0.00  0.00     0.000 HD
ATOM     28   S  SGN F   2     -14.212  46.953 169.3660  0.00  0.00     0.000 S
ATOM     29   O  SGN F   2     -13.063  47.611 169.9480  0.00  0.00     0.000 OA
ATOM     30   O  SGN F   2     -13.931  45.587 168.9870  0.00  0.00     0.000 OA
ATOM     31   O  SGN F   2     -14.793  47.678 168.2950  0.00  0.00     0.000 OA
ATOM     32   O  SGN F   2     -16.566  44.494 171.8950  0.00  0.00     0.000 O
ATOM     34  HD  SGN F   2     -17.274  44.438 171.3980  0.00  0.00     0.000 HD
ATOM     34   C  SGN F   2     -14.187  45.905 175.9730  0.00  0.00     0.000 C
ATOM     35   O  SGN F   2     -13.240  44.939 175.6650  0.00  0.00     0.000 O
ATOM     36   S  SGN F   2     -12.173  44.368 176.5930  0.00  0.00     0.000 S
ATOM     37   O  SGN F   2     -12.379  42.942 176.5580  0.00  0.00     0.000 OA
ATOM     38   O  SGN F   2     -10.923  44.809 176.0140  0.00  0.00     0.000 OA
ATOM     39   O  SGN F   2     -12.405  44.940 177.9130  0.00  0.00     0.000 OA
BRANCH 20 40
ATOM     40  O4  IDS F   3     -15.233  48.433 172.9470  0.00  0.00     0.000 O
BRANCH 40 44
ATOM     41  C1  IDS F   3     -17.368  51.180 172.6510  0.00  0.00     0.000 C
ATOM     42  C2  IDS F   3     -17.279  50.171 171.5340  0.00  0.00     0.000 C
ATOM     43  C3  IDS F   3     -15.792  49.864 171.1090  0.00  0.00     0.000 C
ATOM     44  C4  IDS F   3     -14.893  49.660 172.3150  0.00  0.00     0.000 C
ATOM     45  C5  IDS F   3     -15.093  50.821 173.2880  0.00  0.00     0.000 C
ATOM     46  O5  IDS F   3     -16.439  50.878 173.7020  0.00  0.00     0.000 O
ATOM     47   O  IDS F   3     -18.597  47.541 170.1830  0.00  0.00     0.000 OA
ATOM     48   O  IDS F   3     -19.767  47.448 172.2380  0.00  0.00     0.000 OA
ATOM     49   O  IDS F   3     -19.920  49.377 170.8020  0.00  0.00     0.000 OA
ATOM     50   O  IDS F   3     -17.939  48.971 171.9500  0.00  0.00     0.000 O
ATOM     51   S  IDS F   3     -19.132  48.292 171.2610  0.00  0.00     0.000 S
ATOM     52   O  IDS F   3     -15.266  50.967 170.3790  0.00  0.00     0.000 O
ATOM     54  HD  IDS F   3     -16.070  50.658 170.4670  0.00  0.00     0.000 HD
ATOM     54   C  IDS F   3     -14.155  50.823 174.5010  0.00  0.00     0.000 C
ATOM     55   O  IDS F   3     -14.525  50.392 175.5910  0.00  0.00     0.000 OA
ATOM     56   O  IDS F   3     -12.996  51.248 174.4150  0.00  0.00     0.000 OA
BRANCH 41 57
ATOM     57  O4  SGN F   4     -17.171  52.458 172.1180  0.00  0.00     0.000 O
BRANCH 57 61
ATOM     58  C1  SGN F   4     -18.184  56.258 173.2500  0.00  0.00     0.000 C
ATOM     59  C2  SGN F   4     -16.795  55.767 173.6870  0.00  0.00     0.000 C
ATOM     60  C3  SGN F   4     -16.365  54.543 172.8980  0.00  0.00     0.000 C
ATOM     61  C4  SGN F   4     -17.469  53.492 172.9970  0.00  0.00     0.000 C
ATOM     62  C5  SGN F   4     -18.824  54.107 172.5940  0.00  0.00     0.000 C
ATOM     63  O5  SGN F   4     -19.117  55.221 173.3800  0.00  0.00     0.000 O
ATOM     64   N  SGN F   4     -15.818  56.833 173.5860  0.00  0.00     0.000 N
ATOM     66  HD  SGN F   4     -16.604  56.608 173.8730  0.00  0.00     0.000 HD
ATOM     66   S  SGN F   4     -15.663  57.838 174.8610  0.00  0.00     0.000 S
ATOM     67   O  SGN F   4     -16.890  58.610 174.9150  0.00  0.00     0.000 OA
ATOM     68   O  SGN F   4     -15.473  57.027 176.0610  0.00  0.00     0.000 OA
ATOM     69   O  SGN F   4     -14.516  58.645 174.5090  0.00  0.00     0.000 OA
ATOM     70   O  SGN F   4     -15.185  53.995 173.4680  0.00  0.00     0.000 O
ATOM     72  HD  SGN F   4     -15.971  53.769 173.7550  0.00  0.00     0.000 HD
ATOM     72   C  SGN F   4     -20.003  53.188 172.7780  0.00  0.00     0.000 C
ATOM     73   O  SGN F   4     -20.057  52.843 174.1430  0.00  0.00     0.000 O
ATOM     74   S  SGN F   4     -21.353  52.506 174.9370  0.00  0.00     0.000 S
ATOM     75   O  SGN F   4     -22.266  51.856 174.0550  0.00  0.00     0.000 OA
ATOM     76   O  SGN F   4     -20.963  51.643 176.0510  0.00  0.00     0.000 OA
ATOM     77   O  SGN F   4     -21.851  53.771 175.3130  0.00  0.00     0.000 OA
BRANCH 58 78
ATOM     78  O4  IDS F   5     -18.147  56.755 171.9340  0.00  0.00     0.000 O
BRANCH 78 82
ATOM     79  C1  IDS F   5     -18.726  58.357 168.8930  0.00  0.00     0.000 C
ATOM     80  C2  IDS F   5     -17.455  58.619 169.6910  0.00  0.00     0.000 C
ATOM     81  C3  IDS F   5     -17.759  58.990 171.1440  0.00  0.00     0.000 C
ATOM     82  C4  IDS F   5     -18.765  57.998 171.7650  0.00  0.00     0.000 C
ATOM     83  C5  IDS F   5     -19.976  57.843 170.8430  0.00  0.00     0.000 C
ATOM     84  O5  IDS F   5     -19.567  57.445 169.5510  0.00  0.00     0.000 O
ATOM     85   O  IDS F   5     -19.352  59.593 168.6520  0.00  0.00     0.000 OA
ATOM     86   O  IDS F   5     -16.700  57.440 169.7060  0.00  0.00     0.000 O
ATOM     87   S  IDS F   5     -15.183  57.275 170.0450  0.00  0.00     0.000 S
ATOM     88   O  IDS F   5     -14.843  58.301 170.9950  0.00  0.00     0.000 OA
ATOM     89   O  IDS F   5     -15.037  55.949 170.6000  0.00  0.00     0.000 OA
ATOM     90   O  IDS F   5     -14.502  57.460 168.7910  0.00  0.00     0.000 OA
ATOM     91   O  IDS F   5     -18.325  60.286 171.1580  0.00  0.00     0.000 O
ATOM     93  HD  IDS F   5     -19.163  60.099 171.2690  0.00  0.00     0.000 HD
ATOM     93   O  IDS F   5     -21.318  55.882 170.8210  0.00  0.00     0.000 OA
ATOM     94   O  IDS F   5     -21.660  57.184 172.3980  0.00  0.00     0.000 OA
ATOM     95   C  IDS F   5     -21.048  56.914 171.3810  0.00  0.00     0.000 C
ENDBRANCH 78 82
ENDBRANCH 58 78
ENDBRANCH 57 61
ENDBRANCH 41 57
ENDBRANCH 40 44
ENDBRANCH 20 40
ENDBRANCH 19 23
ENDBRANCH 1 19
TORSDOF 8
ENDMDL
MODEL 36
REMARK VINA RESULT:      -6.1      3.913     11.827
FFDIST PL LJ 2322 74 36 -1
ROOT
ATOM      1  C1  IDS F   1     -19.831  46.454 174.1770  0.00  0.00     0.000 C
ATOM      2  C2  IDS F   1     -20.168  45.641 172.9170  0.00  0.00     0.000 C
ATOM      3  C3  IDS F   1     -19.761  44.151 173.0250  0.00  0.00     0.000 C
ATOM      4  C4  IDS F   1     -19.984  43.540 174.4290  0.00  0.00     0.000 C
ATOM      5  C5  IDS F   1     -19.630  44.561 175.5160  0.00  0.00     0.000 C
ATOM      6  O5  IDS F   1     -20.306  45.754 175.2960  0.00  0.00     0.000 O
ATOM      7   S  IDS F   1     -22.333  45.347 171.3270  0.00  0.00     0.000 S
ATOM      8   O  IDS F   1     -21.829  44.072 170.9150  0.00  0.00     0.000 OA
ATOM      9   O  IDS F   1     -23.734  45.278 171.6240  0.00  0.00     0.000 OA
ATOM     10   O  IDS F   1     -21.995  46.416 170.4160  0.00  0.00     0.000 OA
ATOM     11   O  IDS F   1     -21.560  45.675 172.6750  0.00  0.00     0.000 O
ATOM     12   O  IDS F   1     -18.381  44.027 172.6940  0.00  0.00     0.000 O
ATOM     14  HD  IDS F   1     -17.806  43.463 173.0130  0.00  0.00     0.000 HD
ATOM     14   O  IDS F   1     -21.345  43.198 174.5270  0.00  0.00     0.000 O
ATOM     16  HD  IDS F   1     -20.770  42.634 174.8460  0.00  0.00     0.000 HD
ATOM     16   O  IDS F   1     -20.311  44.900 177.7720  0.00  0.00     0.000 OA
ATOM     17   O  IDS F   1     -19.548  43.002 177.3340  0.00  0.00     0.000 OA
ATOM     18   C  IDS F   1     -19.843  44.123 176.9510  0.00  0.00     0.000 C
ENDROOT
BRANCH 1 19
ATOM     19  O4  SGN F   2     -20.492  47.671 174.1190  0.00  0.00     0.000 O
BRANCH 19 23
ATOM     20  C1  SGN F   2     -17.586  50.645 174.4470  0.00  0.00     0.000 C
ATOM     21  C2  SGN F   2     -18.405  50.391 175.7020  0.00  0.00     0.000 C
ATOM     22  C3  SGN F   2     -19.020  48.984 175.6810  0.00  0.00     0.000 C
ATOM     23  C4  SGN F   2     -19.876  48.915 174.3750  0.00  0.00     0.000 C
ATOM     24  C5  SGN F   2     -18.936  49.158 173.2410  0.00  0.00     0.000 C
ATOM     25  O5  SGN F   2     -18.397  50.438 173.3230  0.00  0.00     0.000 O
ATOM     26   N  SGN F   2     -17.574  50.706 176.8890  0.00  0.00     0.000 N
ATOM     28  HD  SGN F   2     -17.414  50.323 177.6490  0.00  0.00     0.000 HD
ATOM     28   S  SGN F   2     -17.469  52.311 177.3590  0.00  0.00     0.000 S
ATOM     29   O  SGN F   2     -17.142  53.087 176.1830  0.00  0.00     0.000 OA
ATOM     30   O  SGN F   2     -18.780  52.627 177.8810  0.00  0.00     0.000 OA
ATOM     31   O  SGN F   2     -16.479  52.378 178.3710  0.00  0.00     0.000 OA
ATOM     32   O  SGN F   2     -19.845  48.838 176.8300  0.00  0.00     0.000 O
ATOM     34  HD  SGN F   2     -19.686  48.455 177.5900  0.00  0.00     0.000 HD
ATOM     34   C  SGN F   2     -19.609  49.067 171.9130  0.00  0.00     0.000 C
ATOM     35   O  SGN F   2     -20.667  49.963 171.9780  0.00  0.00     0.000 O
ATOM     36   S  SGN F   2     -21.573  50.401 170.8330  0.00  0.00     0.000 S
ATOM     37   O  SGN F   2     -22.910  50.122 171.2930  0.00  0.00     0.000 OA
ATOM     38   O  SGN F   2     -21.279  51.807 170.6610  0.00  0.00     0.000 OA
ATOM     39   O  SGN F   2     -21.201  49.610 169.6670  0.00  0.00     0.000 OA
BRANCH 20 40
ATOM     40  O4  IDS F   3     -16.456  49.817 174.3910  0.00  0.00     0.000 O
BRANCH 40 44
ATOM     41  C1  IDS F   3     -13.203  48.549 174.4550  0.00  0.00     0.000 C
ATOM     42  C2  IDS F   3     -13.621  49.603 175.4490  0.00  0.00     0.000 C
ATOM     43  C3  IDS F   3     -14.323  50.839 174.7670  0.00  0.00     0.000 C
ATOM     44  C4  IDS F   3     -15.343  50.406 173.7310  0.00  0.00     0.000 C
ATOM     45  C5  IDS F   3     -14.697  49.390 172.7890  0.00  0.00     0.000 C
ATOM     46  O5  IDS F   3     -14.255  48.268 173.5200  0.00  0.00     0.000 O
ATOM     47   O  IDS F   3     -14.687  50.185 178.4500  0.00  0.00     0.000 OA
ATOM     48   O  IDS F   3     -15.091  47.854 178.4300  0.00  0.00     0.000 OA
ATOM     49   O  IDS F   3     -12.880  48.739 178.0660  0.00  0.00     0.000 OA
ATOM     50   O  IDS F   3     -14.493  49.000 176.4120  0.00  0.00     0.000 O
ATOM     51   S  IDS F   3     -14.278  48.931 177.9310  0.00  0.00     0.000 S
ATOM     52   O  IDS F   3     -13.350  51.627 174.0900  0.00  0.00     0.000 O
ATOM     54  HD  IDS F   3     -13.303  51.120 174.7910  0.00  0.00     0.000 HD
ATOM     54   C  IDS F   3     -15.568  48.953 171.6060  0.00  0.00     0.000 C
ATOM     55   O  IDS F   3     -16.199  47.900 171.6360  0.00  0.00     0.000 OA
ATOM     56   O  IDS F   3     -15.669  49.654 170.5900  0.00  0.00     0.000 OA
BRANCH 41 57
ATOM     57  O4  SGN F   4     -12.029  48.970 173.8230  0.00  0.00     0.000 O
BRANCH 57 61
ATOM     58  C1  SGN F   4     -10.794  45.123 173.1740  0.00  0.00     0.000 C
ATOM     59  C2  SGN F   4     -10.224  45.818 174.4210  0.00  0.00     0.000 C
ATOM     60  C3  SGN F   4     -11.030  47.052 174.7860  0.00  0.00     0.000 C
ATOM     61  C4  SGN F   4     -11.130  47.945 173.5520  0.00  0.00     0.000 C
ATOM     62  C5  SGN F   4     -11.655  47.134 172.3510  0.00  0.00     0.000 C
ATOM     63  O5  SGN F   4     -10.842  46.027 172.1060  0.00  0.00     0.000 O
ATOM     64   N  SGN F   4     -10.141  44.890 175.5330  0.00  0.00     0.000 N
ATOM     66  HD  SGN F   4      -9.965  45.019 174.6950  0.00  0.00     0.000 HD
ATOM     66   S  SGN F   4      -8.797  43.975 175.6530  0.00  0.00     0.000 S
ATOM     67   O  SGN F   4      -8.843  43.046 174.5390  0.00  0.00     0.000 OA
ATOM     68   O  SGN F   4      -7.634  44.858 175.5810  0.00  0.00     0.000 OA
ATOM     69   O  SGN F   4      -8.957  43.317 176.9300  0.00  0.00     0.000 OA
ATOM     70   O  SGN F   4     -10.357  47.781 175.8030  0.00  0.00     0.000 O
ATOM     72  HD  SGN F   4     -10.181  47.910 174.9650  0.00  0.00     0.000 HD
ATOM     72   C  SGN F   4     -11.671  47.891 171.0490  0.00  0.00     0.000 C
ATOM     73   O  SGN F   4     -10.347  48.288 170.7760  0.00  0.00     0.000 O
ATOM     74   S  SGN F   4      -9.737  48.480 169.3580  0.00  0.00     0.000 S
ATOM     75   O  SGN F   4     -10.761  48.959 168.4890  0.00  0.00     0.000 OA
ATOM     76   O  SGN F   4      -8.640  49.438 169.4870  0.00  0.00     0.000 OA
ATOM     77   O  SGN F   4      -9.346  47.178 168.9840  0.00  0.00     0.000 OA
BRANCH 58 78
ATOM     78  O4  IDS F   5     -12.063  44.576 173.4440  0.00  0.00     0.000 O
BRANCH 78 82
ATOM     79  C1  IDS F   5     -15.047  42.776 173.4570  0.00  0.00     0.000 C
ATOM     80  C2  IDS F   5     -14.098  42.733 174.6470  0.00  0.00     0.000 C
ATOM     81  C3  IDS F   5     -12.669  42.387 174.2250  0.00  0.00     0.000 C
ATOM     82  C4  IDS F   5     -12.225  43.251 173.0260  0.00  0.00     0.000 C
ATOM     83  C5  IDS F   5     -13.285  43.192 171.9240  0.00  0.00     0.000 C
ATOM     84  O5  IDS F   5     -14.544  43.586 172.4270  0.00  0.00     0.000 O
ATOM     85   O  IDS F   5     -15.282  41.454 173.0380  0.00  0.00     0.000 OA
ATOM     86   O  IDS F   5     -14.069  44.007 175.2260  0.00  0.00     0.000 O
ATOM     87   S  IDS F   5     -13.572  44.402 176.6560  0.00  0.00     0.000 S
ATOM     88   O  IDS F   5     -12.530  43.478 177.0170  0.00  0.00     0.000 OA
ATOM     89   O  IDS F   5     -13.086  45.758 176.5510  0.00  0.00     0.000 OA
ATOM     90   O  IDS F   5     -14.729  44.261 177.5000  0.00  0.00     0.000 OA
ATOM     91   O  IDS F   5     -12.640  41.025 173.8440  0.00  0.00     0.000 O
ATOM     93  HD  IDS F   5     -12.635  41.095 172.9810  0.00  0.00     0.000 HD
ATOM     93   O  IDS F   5     -13.575  44.938 170.3390  0.00  0.00     0.000 OA
ATOM     94   O  IDS F   5     -11.971  43.671 169.9930  0.00  0.00     0.000 OA
ATOM     95   C  IDS F   5     -12.927  43.981 170.6780  0.00  0.00     0.000 C
ENDBRANCH 78 82
ENDBRANCH 58 78
ENDBRANCH 57 61
ENDBRANCH 41 57
ENDBRANCH 40 44
ENDBRANCH 20 40
ENDBRANCH 19 23
ENDBRANCH 1 19
TORSDOF 8
ENDMDL
MODEL 37
REMARK VINA RESULT:      -6.0      3.266     11.841
FFDIST PL LJ 2322 74 36 -1
ROOT
ATOM      1  C1  IDS F   1     -18.655  56.090 172.0490  0.00  0.00     0.000 C
ATOM      2  C2  IDS F   1     -17.690  56.385 173.2090  0.00  0.00     0.000 C
ATOM      3  C3  IDS F   1     -16.222  56.564 172.7490  0.00  0.00     0.000 C
ATOM      4  C4  IDS F   1     -16.072  57.310 171.4030  0.00  0.00     0.000 C
ATOM      5  C5  IDS F   1     -17.182  56.886 170.4330  0.00  0.00     0.000 C
ATOM      6  O5  IDS F   1     -18.426  57.030 171.0330  0.00  0.00     0.000 O
ATOM      7   S  IDS F   1     -17.656  58.077 175.3150  0.00  0.00     0.000 S
ATOM      8   O  IDS F   1     -16.228  57.970 175.3490  0.00  0.00     0.000 OA
ATOM      9   O  IDS F   1     -18.076  59.441 175.4520  0.00  0.00     0.000 OA
ATOM     10   O  IDS F   1     -18.317  57.182 176.2360  0.00  0.00     0.000 OA
ATOM     11   O  IDS F   1     -18.068  57.579 173.8640  0.00  0.00     0.000 O
ATOM     12   O  IDS F   1     -15.622  55.277 172.6220  0.00  0.00     0.000 O
ATOM     14  HD  IDS F   1     -15.012  55.029 172.0590  0.00  0.00     0.000 HD
ATOM     14   O  IDS F   1     -16.178  58.686 171.6710  0.00  0.00     0.000 O
ATOM     16  HD  IDS F   1     -15.569  58.437 171.1080  0.00  0.00     0.000 HD
ATOM     16   O  IDS F   1     -18.255  57.915 168.5740  0.00  0.00     0.000 OA
ATOM     17   O  IDS F   1     -16.171  57.786 168.4560  0.00  0.00     0.000 OA
ATOM     18   C  IDS F   1     -17.197  57.571 169.0810  0.00  0.00     0.000 C
ENDROOT
BRANCH 1 19
ATOM     19  O4  SGN F   2     -19.959  56.250 172.4960  0.00  0.00     0.000 O
BRANCH 19 23
ATOM     20  C1  SGN F   2     -21.818  52.517 172.5420  0.00  0.00     0.000 C
ATOM     21  C2  SGN F   2     -22.016  53.330 171.2720  0.00  0.00     0.000 C
ATOM     22  C3  SGN F   2     -20.902  54.374 171.1100  0.00  0.00     0.000 C
ATOM     23  C4  SGN F   2     -20.950  55.250 172.4040  0.00  0.00     0.000 C
ATOM     24  C5  SGN F   2     -20.718  54.322 173.5500  0.00  0.00     0.000 C
ATOM     25  O5  SGN F   2     -21.746  53.389 173.6360  0.00  0.00     0.000 O
ATOM     26   N  SGN F   2     -22.191  52.401 170.1300  0.00  0.00     0.000 N
ATOM     28  HD  SGN F   2     -21.880  52.350 169.3230  0.00  0.00     0.000 HD
ATOM     28   S  SGN F   2     -23.718  51.757 169.8810  0.00  0.00     0.000 S
ATOM     29   O  SGN F   2     -24.180  51.234 171.1470  0.00  0.00     0.000 OA
ATOM     30   O  SGN F   2     -24.516  52.872 169.4210  0.00  0.00     0.000 OA
ATOM     31   O  SGN F   2     -23.586  50.766 168.8760  0.00  0.00     0.000 OA
ATOM     32   O  SGN F   2     -21.190  55.162 169.9610  0.00  0.00     0.000 O
ATOM     34  HD  SGN F   2     -20.879  55.111 169.1540  0.00  0.00     0.000 HD
ATOM     34   C  SGN F   2     -20.681  55.033 174.8610  0.00  0.00     0.000 C
ATOM     35   O  SGN F   2     -21.877  55.734 174.9290  0.00  0.00     0.000 O
ATOM     36   S  SGN F   2     -22.436  56.484 176.1320  0.00  0.00     0.000 S
ATOM     37   O  SGN F   2     -22.678  57.821 175.6530  0.00  0.00     0.000 OA
ATOM     38   O  SGN F   2     -23.630  55.749 176.4900  0.00  0.00     0.000 OA
ATOM     39   O  SGN F   2     -21.421  56.434 177.1770  0.00  0.00     0.000 OA
BRANCH 20 40
ATOM     40  O4  IDS F   3     -20.663  51.725 172.4730  0.00  0.00     0.000 O
BRANCH 40 44
ATOM     41  C1  IDS F   3     -18.754  48.809 172.6810  0.00  0.00     0.000 C
ATOM     42  C2  IDS F   3     -20.257  48.721 172.5870  0.00  0.00     0.000 C
ATOM     43  C3  IDS F   3     -20.987  49.653 173.6290  0.00  0.00     0.000 C
ATOM     44  C4  IDS F   3     -20.364  51.036 173.6800  0.00  0.00     0.000 C
ATOM     45  C5  IDS F   3     -18.851  50.897 173.8410  0.00  0.00     0.000 C
ATOM     46  O5  IDS F   3     -18.315  50.173 172.7560  0.00  0.00     0.000 O
ATOM     47   O  IDS F   3     -22.801  48.292 170.6320  0.00  0.00     0.000 OA
ATOM     48   O  IDS F   3     -21.182  48.670 168.9480  0.00  0.00     0.000 OA
ATOM     49   O  IDS F   3     -20.940  46.868 170.5280  0.00  0.00     0.000 OA
ATOM     50   O  IDS F   3     -20.650  49.058 171.2530  0.00  0.00     0.000 O
ATOM     51   S  IDS F   3     -21.434  48.171 170.2740  0.00  0.00     0.000 S
ATOM     52   O  IDS F   3     -20.869  49.095 174.9330  0.00  0.00     0.000 O
ATOM     54  HD  IDS F   3     -20.894  48.734 174.1460  0.00  0.00     0.000 HD
ATOM     54   C  IDS F   3     -18.093  52.214 174.0370  0.00  0.00     0.000 C
ATOM     55   O  IDS F   3     -17.523  52.766 173.0980  0.00  0.00     0.000 OA
ATOM     56   O  IDS F   3     -18.042  52.767 175.1440  0.00  0.00     0.000 OA
BRANCH 41 57
ATOM     57  O4  SGN F   4     -18.329  48.052 173.7770  0.00  0.00     0.000 O
BRANCH 57 61
ATOM     58  C1  SGN F   4     -14.591  46.851 174.9320  0.00  0.00     0.000 C
ATOM     59  C2  SGN F   4     -15.291  47.866 175.8490  0.00  0.00     0.000 C
ATOM     60  C3  SGN F   4     -16.782  47.935 175.5660  0.00  0.00     0.000 C
ATOM     61  C4  SGN F   4     -16.978  48.188 174.0720  0.00  0.00     0.000 C
ATOM     62  C5  SGN F   4     -16.187  47.152 173.2500  0.00  0.00     0.000 C
ATOM     63  O5  SGN F   4     -14.834  47.175 173.5910  0.00  0.00     0.000 O
ATOM     64   N  SGN F   4     -15.030  47.564 177.2430  0.00  0.00     0.000 N
ATOM     66  HD  SGN F   4     -14.682  47.672 176.4570  0.00  0.00     0.000 HD
ATOM     66   S  SGN F   4     -13.672  48.177 177.9060  0.00  0.00     0.000 S
ATOM     67   O  SGN F   4     -12.567  47.481 177.2750  0.00  0.00     0.000 OA
ATOM     68   O  SGN F   4     -13.640  49.613 177.6360  0.00  0.00     0.000 OA
ATOM     69   O  SGN F   4     -13.809  47.846 179.3060  0.00  0.00     0.000 OA
ATOM     70   O  SGN F   4     -17.355  49.023 176.2750  0.00  0.00     0.000 O
ATOM     72  HD  SGN F   4     -17.007  49.131 175.4890  0.00  0.00     0.000 HD
ATOM     72   C  SGN F   4     -16.210  47.390 171.7630  0.00  0.00     0.000 C
ATOM     73   O  SGN F   4     -15.652  48.664 171.5320  0.00  0.00     0.000 O
ATOM     74   S  SGN F   4     -14.872  49.088 170.2550  0.00  0.00     0.000 S
ATOM     75   O  SGN F   4     -15.428  48.400 169.1370  0.00  0.00     0.000 OA
ATOM     76   O  SGN F   4     -15.012  50.538 170.1270  0.00  0.00     0.000 OA
ATOM     77   O  SGN F   4     -13.558  48.639 170.5030  0.00  0.00     0.000 OA
BRANCH 58 78
ATOM     78  O4  IDS F   5     -15.007  45.540 175.2280  0.00  0.00     0.000 O
BRANCH 78 82
ATOM     79  C1  IDS F   5     -14.721  42.066 175.2270  0.00  0.00     0.000 C
ATOM     80  C2  IDS F   5     -15.599  42.782 176.2440  0.00  0.00     0.000 C
ATOM     81  C3  IDS F   5     -14.840  43.895 176.9710  0.00  0.00     0.000 C
ATOM     82  C4  IDS F   5     -14.085  44.791 175.9670  0.00  0.00     0.000 C
ATOM     83  C5  IDS F   5     -13.258  43.922 175.0170  0.00  0.00     0.000 C
ATOM     84  O5  IDS F   5     -14.081  42.975 174.3690  0.00  0.00     0.000 O
ATOM     85   O  IDS F   5     -13.812  41.256 175.9290  0.00  0.00     0.000 OA
ATOM     86   O  IDS F   5     -16.664  43.378 175.5570  0.00  0.00     0.000 O
ATOM     87   S  IDS F   5     -18.019  43.892 176.1430  0.00  0.00     0.000 S
ATOM     88   O  IDS F   5     -17.764  44.327 177.4910  0.00  0.00     0.000 OA
ATOM     89   O  IDS F   5     -18.440  44.979 175.2900  0.00  0.00     0.000 OA
ATOM     90   O  IDS F   5     -18.894  42.750 176.1060  0.00  0.00     0.000 OA
ATOM     91   O  IDS F   5     -13.904  43.292 177.8420  0.00  0.00     0.000 O
ATOM     93  HD  IDS F   5     -13.171  43.396 177.3940  0.00  0.00     0.000 HD
ATOM     93   O  IDS F   5     -12.667  44.633 172.8290  0.00  0.00     0.000 OA
ATOM     94   O  IDS F   5     -11.544  45.448 174.3700  0.00  0.00     0.000 OA
ATOM     95   C  IDS F   5     -12.442  44.711 174.0100  0.00  0.00     0.000 C
ENDBRANCH 78 82
ENDBRANCH 58 78
ENDBRANCH 57 61
ENDBRANCH 41 57
ENDBRANCH 40 44
ENDBRANCH 20 40
ENDBRANCH 19 23
ENDBRANCH 1 19
TORSDOF 8
ENDMDL
MODEL 38
REMARK VINA RESULT:      -6.0      4.438     11.161
FFDIST PL LJ 2322 74 36 -1
ROOT
ATOM      1  C1  IDS F   1     -17.031  58.279 169.1070  0.00  0.00     0.000 C
ATOM      2  C2  IDS F   1     -16.147  57.858 167.9220  0.00  0.00     0.000 C
ATOM      3  C3  IDS F   1     -16.952  57.582 166.6290  0.00  0.00     0.000 C
ATOM      4  C4  IDS F   1     -18.140  58.548 166.4110  0.00  0.00     0.000 C
ATOM      5  C5  IDS F   1     -18.827  58.858 167.7450  0.00  0.00     0.000 C
ATOM      6  O5  IDS F   1     -17.894  59.296 168.6760  0.00  0.00     0.000 O
ATOM      7   S  IDS F   1     -13.872  58.773 166.7850  0.00  0.00     0.000 S
ATOM      8   O  IDS F   1     -14.249  58.125 165.5650  0.00  0.00     0.000 OA
ATOM      9   O  IDS F   1     -13.394  60.102 166.5400  0.00  0.00     0.000 OA
ATOM     10   O  IDS F   1     -12.974  57.984 167.5960  0.00  0.00     0.000 OA
ATOM     11   O  IDS F   1     -15.218  58.881 167.6220  0.00  0.00     0.000 O
ATOM     12   O  IDS F   1     -17.458  56.250 166.6800  0.00  0.00     0.000 O
ATOM     14  HD  IDS F   1     -18.200  55.950 166.3490  0.00  0.00     0.000 HD
ATOM     14   O  IDS F   1     -17.622  59.733 165.8590  0.00  0.00     0.000 O
ATOM     16  HD  IDS F   1     -18.364  59.433 165.5280  0.00  0.00     0.000 HD
ATOM     16   O  IDS F   1     -20.117  60.678 168.5760  0.00  0.00     0.000 OA
ATOM     17   O  IDS F   1     -20.821  59.802 166.8110  0.00  0.00     0.000 OA
ATOM     18   C  IDS F   1     -19.985  59.834 167.7000  0.00  0.00     0.000 C
ENDROOT
BRANCH 1 19
ATOM     19  O4  SGN F   2     -16.224  58.795 170.1100  0.00  0.00     0.000 O
BRANCH 19 23
ATOM     20  C1  SGN F   2     -16.773  56.632 173.6330  0.00  0.00     0.000 C
ATOM     21  C2  SGN F   2     -17.732  57.793 173.4240  0.00  0.00     0.000 C
ATOM     22  C3  SGN F   2     -17.834  58.159 171.9360  0.00  0.00     0.000 C
ATOM     23  C4  SGN F   2     -16.376  58.487 171.4790  0.00  0.00     0.000 C
ATOM     24  C5  SGN F   2     -15.569  57.255 171.7230  0.00  0.00     0.000 C
ATOM     25  O5  SGN F   2     -15.528  56.963 173.0830  0.00  0.00     0.000 O
ATOM     26   N  SGN F   2     -19.018  57.481 174.0930  0.00  0.00     0.000 N
ATOM     28  HD  SGN F   2     -19.855  57.544 173.8810  0.00  0.00     0.000 HD
ATOM     28   S  SGN F   2     -19.125  57.772 175.7400  0.00  0.00     0.000 S
ATOM     29   O  SGN F   2     -17.970  57.168 176.3640  0.00  0.00     0.000 OA
ATOM     30   O  SGN F   2     -19.126  59.213 175.8590  0.00  0.00     0.000 OA
ATOM     31   O  SGN F   2     -20.355  57.217 176.1750  0.00  0.00     0.000 OA
ATOM     32   O  SGN F   2     -18.668  59.304 171.8120  0.00  0.00     0.000 O
ATOM     34  HD  SGN F   2     -19.505  59.368 171.6000  0.00  0.00     0.000 HD
ATOM     34   C  SGN F   2     -14.153  57.403 171.2800  0.00  0.00     0.000 C
ATOM     35   O  SGN F   2     -13.682  58.531 171.9350  0.00  0.00     0.000 O
ATOM     36   S  SGN F   2     -12.243  59.033 171.9840  0.00  0.00     0.000 S
ATOM     37   O  SGN F   2     -12.311  60.394 171.5120  0.00  0.00     0.000 OA
ATOM     38   O  SGN F   2     -11.862  58.897 173.3730  0.00  0.00     0.000 OA
ATOM     39   O  SGN F   2     -11.460  58.171 171.1070  0.00  0.00     0.000 OA
BRANCH 20 40
ATOM     40  O4  IDS F   3     -17.261  55.449 173.0600  0.00  0.00     0.000 O
BRANCH 40 44
ATOM     41  C1  IDS F   3     -18.631  52.300 172.4300  0.00  0.00     0.000 C
ATOM     42  C2  IDS F   3     -19.308  53.237 173.3980  0.00  0.00     0.000 C
ATOM     43  C3  IDS F   3     -18.314  53.827 174.4710  0.00  0.00     0.000 C
ATOM     44  C4  IDS F   3     -17.014  54.287 173.8400  0.00  0.00     0.000 C
ATOM     45  C5  IDS F   3     -16.466  53.170 172.9520  0.00  0.00     0.000 C
ATOM     46  O5  IDS F   3     -17.399  52.854 171.9430  0.00  0.00     0.000 O
ATOM     47   O  IDS F   3     -21.641  55.443 173.8070  0.00  0.00     0.000 OA
ATOM     48   O  IDS F   3     -21.666  55.408 171.4420  0.00  0.00     0.000 OA
ATOM     49   O  IDS F   3     -22.075  53.409 172.7230  0.00  0.00     0.000 OA
ATOM     50   O  IDS F   3     -19.925  54.293 172.6540  0.00  0.00     0.000 O
ATOM     51   S  IDS F   3     -21.416  54.662 172.6460  0.00  0.00     0.000 S
ATOM     52   O  IDS F   3     -17.983  52.818 175.4190  0.00  0.00     0.000 O
ATOM     54  HD  IDS F   3     -18.690  52.955 174.9390  0.00  0.00     0.000 HD
ATOM     54   C  IDS F   3     -15.085  53.438 172.3440  0.00  0.00     0.000 C
ATOM     55   O  IDS F   3     -14.967  53.845 171.1900  0.00  0.00     0.000 OA
ATOM     56   O  IDS F   3     -14.050  53.264 173.0000  0.00  0.00     0.000 OA
BRANCH 41 57
ATOM     57  O4  SGN F   4     -18.447  51.064 173.0560  0.00  0.00     0.000 O
BRANCH 57 61
ATOM     58  C1  SGN F   4     -18.630  47.118 171.9870  0.00  0.00     0.000 C
ATOM     59  C2  SGN F   4     -17.361  47.877 171.5680  0.00  0.00     0.000 C
ATOM     60  C3  SGN F   4     -17.211  49.176 172.3390  0.00  0.00     0.000 C
ATOM     61  C4  SGN F   4     -18.504  49.975 172.1950  0.00  0.00     0.000 C
ATOM     62  C5  SGN F   4     -19.713  49.102 172.5830  0.00  0.00     0.000 C
ATOM     63  O5  SGN F   4     -19.752  47.938 171.8150  0.00  0.00     0.000 O
ATOM     64   N  SGN F   4     -16.189  47.035 171.7130  0.00  0.00     0.000 N
ATOM     66  HD  SGN F   4     -16.996  47.089 171.4050  0.00  0.00     0.000 HD
ATOM     66   S  SGN F   4     -15.799  46.063 170.4640  0.00  0.00     0.000 S
ATOM     67   O  SGN F   4     -16.840  45.054 170.4010  0.00  0.00     0.000 OA
ATOM     68   O  SGN F   4     -15.750  46.875 169.2500  0.00  0.00     0.000 OA
ATOM     69   O  SGN F   4     -14.520  45.515 170.8570  0.00  0.00     0.000 OA
ATOM     70   O  SGN F   4     -16.155  49.945 171.7820  0.00  0.00     0.000 O
ATOM     72  HD  SGN F   4     -16.962  49.999 171.4740  0.00  0.00     0.000 HD
ATOM     72   C  SGN F   4     -21.051  49.755 172.3550  0.00  0.00     0.000 C
ATOM     73   O  SGN F   4     -21.142  50.059 170.9820  0.00  0.00     0.000 O
ATOM     74   S  SGN F   4     -22.458  50.108 170.1540  0.00  0.00     0.000 S
ATOM     75   O  SGN F   4     -23.507  50.571 171.0020  0.00  0.00     0.000 OA
ATOM     76   O  SGN F   4     -22.227  51.014 169.0300  0.00  0.00     0.000 OA
ATOM     77   O  SGN F   4     -22.677  48.762 169.7950  0.00  0.00     0.000 OA
BRANCH 58 78
ATOM     78  O4  IDS F   5     -18.524  46.662 173.3140  0.00  0.00     0.000 O
BRANCH 78 82
ATOM     79  C1  IDS F   5     -18.750  45.010 176.3750  0.00  0.00     0.000 C
ATOM     80  C2  IDS F   5     -17.469  44.971 175.5530  0.00  0.00     0.000 C
ATOM     81  C3  IDS F   5     -17.730  44.538 174.1090  0.00  0.00     0.000 C
ATOM     82  C4  IDS F   5     -18.908  45.330 173.5020  0.00  0.00     0.000 C
ATOM     83  C5  IDS F   5     -20.109  45.276 174.4480  0.00  0.00     0.000 C
ATOM     84  O5  IDS F   5     -19.752  45.752 175.7300  0.00  0.00     0.000 O
ATOM     85   O  IDS F   5     -19.142  43.685 176.6360  0.00  0.00     0.000 OA
ATOM     86   O  IDS F   5     -16.936  46.265 175.5150  0.00  0.00     0.000 O
ATOM     87   S  IDS F   5     -15.479  46.694 175.1450  0.00  0.00     0.000 S
ATOM     88   O  IDS F   5     -14.980  45.736 174.1940  0.00  0.00     0.000 OA
ATOM     89   O  IDS F   5     -15.582  48.020 174.5800  0.00  0.00     0.000 OA
ATOM     90   O  IDS F   5     -14.752  46.645 176.3860  0.00  0.00     0.000 OA
ATOM     91   O  IDS F   5     -18.056  43.162 174.1130  0.00  0.00     0.000 O
ATOM     93  HD  IDS F   5     -18.916  43.196 174.0190  0.00  0.00     0.000 HD
ATOM     93   O  IDS F   5     -21.778  46.966 174.4870  0.00  0.00     0.000 OA
ATOM     94   O  IDS F   5     -21.912  45.610 172.9250  0.00  0.00     0.000 OA
ATOM     95   C  IDS F   5     -21.340  45.994 173.9270  0.00  0.00     0.000 C
ENDBRANCH 78 82
ENDBRANCH 58 78
ENDBRANCH 57 61
ENDBRANCH 41 57
ENDBRANCH 40 44
ENDBRANCH 20 40
ENDBRANCH 19 23
ENDBRANCH 1 19
TORSDOF 8
ENDMDL
MODEL 39
REMARK VINA RESULT:      -6.0      2.798      5.204
FFDIST PL LJ 2322 74 36 -1
ROOT
ATOM      1  C1  IDS F   1      -8.058  47.017 173.4280  0.00  0.00     0.000 C
ATOM      2  C2  IDS F   1      -8.014  48.554 173.4440  0.00  0.00     0.000 C
ATOM      3  C3  IDS F   1      -7.602  49.138 174.8170  0.00  0.00     0.000 C
ATOM      4  C4  IDS F   1      -6.509  48.320 175.5440  0.00  0.00     0.000 C
ATOM      5  C5  IDS F   1      -6.739  46.819 175.3360  0.00  0.00     0.000 C
ATOM      6  O5  IDS F   1      -6.863  46.535 173.9810  0.00  0.00     0.000 O
ATOM      7   S  IDS F   1      -6.961  50.475 171.8630  0.00  0.00     0.000 S
ATOM      8   O  IDS F   1      -6.960  51.365 172.9840  0.00  0.00     0.000 OA
ATOM      9   O  IDS F   1      -5.722  50.548 171.1430  0.00  0.00     0.000 OA
ATOM     10   O  IDS F   1      -8.122  50.624 171.0160  0.00  0.00     0.000 OA
ATOM     11   O  IDS F   1      -7.077  49.022 172.4950  0.00  0.00     0.000 O
ATOM     12   O  IDS F   1      -8.754  49.196 175.6550  0.00  0.00     0.000 O
ATOM     14  HD  IDS F   1      -8.792  49.099 176.5140  0.00  0.00     0.000 HD
ATOM     14   O  IDS F   1      -5.270  48.690 174.9920  0.00  0.00     0.000 O
ATOM     16  HD  IDS F   1      -5.308  48.593 175.8520  0.00  0.00     0.000 HD
ATOM     16   O  IDS F   1      -5.333  44.899 175.3390  0.00  0.00     0.000 OA
ATOM     17   O  IDS F   1      -5.260  46.075 177.0670  0.00  0.00     0.000 OA
ATOM     18   C  IDS F   1      -5.717  45.885 175.9510  0.00  0.00     0.000 C
ENDROOT
BRANCH 1 19
ATOM     19  O4  SGN F   2      -8.129  46.582 172.1130  0.00  0.00     0.000 O
BRANCH 19 23
ATOM     20  C1  SGN F   2     -12.089  45.666 171.1780  0.00  0.00     0.000 C
ATOM     21  C2  SGN F   2     -11.265  44.514 171.7320  0.00  0.00     0.000 C
ATOM     22  C3  SGN F   2     -10.067  45.034 172.5380  0.00  0.00     0.000 C
ATOM     23  C4  SGN F   2      -9.257  45.941 171.5560  0.00  0.00     0.000 C
ATOM     24  C5  SGN F   2     -10.184  47.027 171.1230  0.00  0.00     0.000 C
ATOM     25  O5  SGN F   2     -11.258  46.496 170.4150  0.00  0.00     0.000 O
ATOM     26   N  SGN F   2     -12.166  43.584 172.4550  0.00  0.00     0.000 N
ATOM     28  HD  SGN F   2     -12.141  43.166 173.2130  0.00  0.00     0.000 HD
ATOM     28   S  SGN F   2     -13.012  42.459 171.5460  0.00  0.00     0.000 S
ATOM     29   O  SGN F   2     -13.644  43.169 170.4560  0.00  0.00     0.000 OA
ATOM     30   O  SGN F   2     -12.007  41.527 171.0870  0.00  0.00     0.000 OA
ATOM     31   O  SGN F   2     -13.935  41.835 172.4220  0.00  0.00     0.000 OA
ATOM     32   O  SGN F   2      -9.286  43.919 172.9500  0.00  0.00     0.000 O
ATOM     34  HD  SGN F   2      -9.261  43.501 173.7080  0.00  0.00     0.000 HD
ATOM     34   C  SGN F   2      -9.526  48.012 170.2160  0.00  0.00     0.000 C
ATOM     35   O  SGN F   2      -9.007  47.257 169.1740  0.00  0.00     0.000 O
ATOM     36   S  SGN F   2      -8.390  47.776 167.8800  0.00  0.00     0.000 S
ATOM     37   O  SGN F   2      -7.084  47.170 167.8240  0.00  0.00     0.000 OA
ATOM     38   O  SGN F   2      -9.302  47.335 166.8470  0.00  0.00     0.000 OA
ATOM     39   O  SGN F   2      -8.334  49.229 167.9860  0.00  0.00     0.000 OA
BRANCH 20 40
ATOM     40  O4  IDS F   3     -12.704  46.400 172.2020  0.00  0.00     0.000 O
BRANCH 40 44
ATOM     41  C1  IDS F   3     -14.749  48.737 173.7980  0.00  0.00     0.000 C
ATOM     42  C2  IDS F   3     -14.458  47.414 174.4600  0.00  0.00     0.000 C
ATOM     43  C3  IDS F   3     -14.704  46.187 173.5010  0.00  0.00     0.000 C
ATOM     44  C4  IDS F   3     -14.123  46.426 172.1200  0.00  0.00     0.000 C
ATOM     45  C5  IDS F   3     -14.591  47.788 171.6100  0.00  0.00     0.000 C
ATOM     46  O5  IDS F   3     -14.165  48.805 172.4890  0.00  0.00     0.000 O
ATOM     47   O  IDS F   3     -12.622  45.837 176.6090  0.00  0.00     0.000 OA
ATOM     48   O  IDS F   3     -11.302  47.795 176.4590  0.00  0.00     0.000 OA
ATOM     49   O  IDS F   3     -13.611  47.897 177.1410  0.00  0.00     0.000 OA
ATOM     50   O  IDS F   3     -13.103  47.423 174.9220  0.00  0.00     0.000 O
ATOM     51   S  IDS F   3     -12.624  47.234 176.3690  0.00  0.00     0.000 S
ATOM     52   O  IDS F   3     -16.104  45.985 173.3340  0.00  0.00     0.000 O
ATOM     54  HD  IDS F   3     -15.637  46.307 173.9880  0.00  0.00     0.000 HD
ATOM     54   C  IDS F   3     -14.187  48.118 170.1690  0.00  0.00     0.000 C
ATOM     55   O  IDS F   3     -13.214  48.827 169.9270  0.00  0.00     0.000 OA
ATOM     56   O  IDS F   3     -14.823  47.669 169.2060  0.00  0.00     0.000 OA
BRANCH 41 57
ATOM     57  O4  SGN F   4     -16.133  48.932 173.7730  0.00  0.00     0.000 O
BRANCH 57 61
ATOM     58  C1  SGN F   4     -18.737  52.014 174.4560  0.00  0.00     0.000 C
ATOM     59  C2  SGN F   4     -17.962  52.061 173.1290  0.00  0.00     0.000 C
ATOM     60  C3  SGN F   4     -17.350  50.712 172.7960  0.00  0.00     0.000 C
ATOM     61  C4  SGN F   4     -16.527  50.245 173.9950  0.00  0.00     0.000 C
ATOM     62  C5  SGN F   4     -17.383  50.295 175.2760  0.00  0.00     0.000 C
ATOM     63  O5  SGN F   4     -17.893  51.576 175.4840  0.00  0.00     0.000 O
ATOM     64   N  SGN F   4     -18.811  52.539 172.0550  0.00  0.00     0.000 N
ATOM     66  HD  SGN F   4     -18.536  52.677 172.8650  0.00  0.00     0.000 HD
ATOM     66   S  SGN F   4     -18.918  54.151 171.8380  0.00  0.00     0.000 S
ATOM     67   O  SGN F   4     -19.638  54.664 172.9890  0.00  0.00     0.000 OA
ATOM     68   O  SGN F   4     -17.563  54.692 171.7540  0.00  0.00     0.000 OA
ATOM     69   O  SGN F   4     -19.676  54.271 170.6130  0.00  0.00     0.000 OA
ATOM     70   O  SGN F   4     -16.472  50.845 171.6870  0.00  0.00     0.000 O
ATOM     72  HD  SGN F   4     -16.198  50.982 172.4970  0.00  0.00     0.000 HD
ATOM     72   C  SGN F   4     -16.629  49.974 176.5410  0.00  0.00     0.000 C
ATOM     73   O  SGN F   4     -15.590  50.918 176.6600  0.00  0.00     0.000 O
ATOM     74   S  SGN F   4     -14.988  51.432 178.0010  0.00  0.00     0.000 S
ATOM     75   O  SGN F   4     -15.025  50.367 178.9480  0.00  0.00     0.000 OA
ATOM     76   O  SGN F   4     -13.621  51.866 177.7210  0.00  0.00     0.000 OA
ATOM     77   O  SGN F   4     -15.870  52.463 178.3880  0.00  0.00     0.000 OA
BRANCH 58 78
ATOM     78  O4  IDS F   5     -19.876  51.196 174.3390  0.00  0.00     0.000 O
BRANCH 78 82
ATOM     79  C1  IDS F   5     -22.948  49.569 174.5960  0.00  0.00     0.000 C
ATOM     80  C2  IDS F   5     -22.669  50.549 173.4640  0.00  0.00     0.000 C
ATOM     81  C3  IDS F   5     -22.148  51.890 173.9850  0.00  0.00     0.000 C
ATOM     82  C4  IDS F   5     -21.008  51.678 175.0040  0.00  0.00     0.000 C
ATOM     83  C5  IDS F   5     -21.444  50.667 176.0660  0.00  0.00     0.000 C
ATOM     84  O5  IDS F   5     -21.848  49.456 175.4610  0.00  0.00     0.000 O
ATOM     85   O  IDS F   5     -24.115  49.988 175.2580  0.00  0.00     0.000 OA
ATOM     86   O  IDS F   5     -21.673  49.999 172.6480  0.00  0.00     0.000 O
ATOM     87   S  IDS F   5     -21.301  50.400 171.1830  0.00  0.00     0.000 S
ATOM     88   O  IDS F   5     -21.587  51.804 171.0390  0.00  0.00     0.000 OA
ATOM     89   O  IDS F   5     -19.893  50.113 171.0330  0.00  0.00     0.000 OA
ATOM     90   O  IDS F   5     -22.152  49.592 170.3510  0.00  0.00     0.000 OA
ATOM     91   O  IDS F   5     -23.217  52.558 174.6250  0.00  0.00     0.000 O
ATOM     93  HD  IDS F   5     -23.024  52.419 175.4580  0.00  0.00     0.000 HD
ATOM     93   O  IDS F   5     -19.889  49.334 177.2700  0.00  0.00     0.000 OA
ATOM     94   O  IDS F   5     -20.061  51.301 177.9020  0.00  0.00     0.000 OA
ATOM     95   C  IDS F   5     -20.405  50.415 177.1430  0.00  0.00     0.000 C
ENDBRANCH 78 82
ENDBRANCH 58 78
ENDBRANCH 57 61
ENDBRANCH 41 57
ENDBRANCH 40 44
ENDBRANCH 20 40
ENDBRANCH 19 23
ENDBRANCH 1 19
TORSDOF 8
ENDMDL
MODEL 40
REMARK VINA RESULT:      -6.0      4.125      6.306
FFDIST PL LJ 2322 74 36 -1
ROOT
ATOM      1  C1  IDS F   1      -7.806  47.812 172.1530  0.00  0.00     0.000 C
ATOM      2  C2  IDS F   1      -6.747  46.724 172.3940  0.00  0.00     0.000 C
ATOM      3  C3  IDS F   1      -5.297  47.238 172.2270  0.00  0.00     0.000 C
ATOM      4  C4  IDS F   1      -5.074  48.672 172.7600  0.00  0.00     0.000 C
ATOM      5  C5  IDS F   1      -6.289  49.552 172.4450  0.00  0.00     0.000 C
ATOM      6  O5  IDS F   1      -7.453  48.946 172.8990  0.00  0.00     0.000 O
ATOM      7   S  IDS F   1      -6.292  44.855 174.2910  0.00  0.00     0.000 S
ATOM      8   O  IDS F   1      -4.911  44.842 173.9140  0.00  0.00     0.000 OA
ATOM      9   O  IDS F   1      -6.439  44.885 175.7180  0.00  0.00     0.000 OA
ATOM     10   O  IDS F   1      -7.066  43.811 173.6610  0.00  0.00     0.000 OA
ATOM     11   O  IDS F   1      -6.861  46.219 173.7090  0.00  0.00     0.000 O
ATOM     12   O  IDS F   1      -4.958  47.213 170.8430  0.00  0.00     0.000 O
ATOM     14  HD  IDS F   1      -4.434  47.753 170.4140  0.00  0.00     0.000 HD
ATOM     14   O  IDS F   1      -4.904  48.582 174.1530  0.00  0.00     0.000 O
ATOM     16  HD  IDS F   1      -4.380  49.122 173.7240  0.00  0.00     0.000 HD
ATOM     16   O  IDS F   1      -7.237  51.503 173.4270  0.00  0.00     0.000 OA
ATOM     17   O  IDS F   1      -5.223  51.653 172.8830  0.00  0.00     0.000 OA
ATOM     18   C  IDS F   1      -6.239  50.981 172.9490  0.00  0.00     0.000 C
ENDROOT
BRANCH 1 19
ATOM     19  O4  SGN F   2      -9.033  47.359 172.6160  0.00  0.00     0.000 O
BRANCH 19 23
ATOM     20  C1  SGN F   2     -12.340  45.413 170.9830  0.00  0.00     0.000 C
ATOM     21  C2  SGN F   2     -11.480  44.571 171.9120  0.00  0.00     0.000 C
ATOM     22  C3  SGN F   2     -10.666  45.461 172.8610  0.00  0.00     0.000 C
ATOM     23  C4  SGN F   2      -9.823  46.402 171.9430  0.00  0.00     0.000 C
ATOM     24  C5  SGN F   2     -10.799  47.171 171.1170  0.00  0.00     0.000 C
ATOM     25  O5  SGN F   2     -11.519  46.314 170.2910  0.00  0.00     0.000 O
ATOM     26   N  SGN F   2     -12.337  43.553 172.5670  0.00  0.00     0.000 N
ATOM     28  HD  SGN F   2     -12.430  43.254 173.3740  0.00  0.00     0.000 HD
ATOM     28   S  SGN F   2     -12.671  42.153 171.7100  0.00  0.00     0.000 S
ATOM     29   O  SGN F   2     -13.120  42.546 170.3930  0.00  0.00     0.000 OA
ATOM     30   O  SGN F   2     -11.416  41.437 171.6730  0.00  0.00     0.000 OA
ATOM     31   O  SGN F   2     -13.650  41.443 172.4500  0.00  0.00     0.000 OA
ATOM     32   O  SGN F   2      -9.816  44.625 173.6390  0.00  0.00     0.000 O
ATOM     34  HD  SGN F   2      -9.910  44.326 174.4460  0.00  0.00     0.000 HD
ATOM     34   C  SGN F   2     -10.133  48.161 170.2200  0.00  0.00     0.000 C
ATOM     35   O  SGN F   2      -9.218  47.425 169.4820  0.00  0.00     0.000 O
ATOM     36   S  SGN F   2      -8.398  47.907 168.2900  0.00  0.00     0.000 S
ATOM     37   O  SGN F   2      -7.030  47.628 168.6480  0.00  0.00     0.000 OA
ATOM     38   O  SGN F   2      -8.897  47.133 167.1750  0.00  0.00     0.000 OA
ATOM     39   O  SGN F   2      -8.662  49.333 168.1390  0.00  0.00     0.000 OA
BRANCH 20 40
ATOM     40  O4  IDS F   3     -13.337  46.104 171.6860  0.00  0.00     0.000 O
BRANCH 40 44
ATOM     41  C1  IDS F   3     -16.287  46.996 173.3290  0.00  0.00     0.000 C
ATOM     42  C2  IDS F   3     -15.753  45.590 173.4480  0.00  0.00     0.000 C
ATOM     43  C3  IDS F   3     -15.404  44.951 172.0490  0.00  0.00     0.000 C
ATOM     44  C4  IDS F   3     -14.646  45.919 171.1620  0.00  0.00     0.000 C
ATOM     45  C5  IDS F   3     -15.388  47.255 171.1290  0.00  0.00     0.000 C
ATOM     46  O5  IDS F   3     -15.488  47.783 172.4320  0.00  0.00     0.000 O
ATOM     47   O  IDS F   3     -14.021  43.523 175.2380  0.00  0.00     0.000 OA
ATOM     48   O  IDS F   3     -13.361  45.509 176.3420  0.00  0.00     0.000 OA
ATOM     49   O  IDS F   3     -15.680  44.869 176.2080  0.00  0.00     0.000 OA
ATOM     50   O  IDS F   3     -14.595  45.613 174.2900  0.00  0.00     0.000 O
ATOM     51   S  IDS F   3     -14.398  44.840 175.6030  0.00  0.00     0.000 S
ATOM     52   O  IDS F   3     -16.607  44.614 171.3660  0.00  0.00     0.000 O
ATOM     54  HD  IDS F   3     -16.410  44.659 172.2080  0.00  0.00     0.000 HD
ATOM     54   C  IDS F   3     -14.809  48.298 170.1670  0.00  0.00     0.000 C
ATOM     55   O  IDS F   3     -14.071  49.194 170.5710  0.00  0.00     0.000 OA
ATOM     56   O  IDS F   3     -15.060  48.263 168.9550  0.00  0.00     0.000 OA
BRANCH 41 57
ATOM     57  O4  SGN F   4     -17.626  46.934 172.9330  0.00  0.00     0.000 O
BRANCH 57 61
ATOM     58  C1  SGN F   4     -20.791  49.304 173.9880  0.00  0.00     0.000 C
ATOM     59  C2  SGN F   4     -20.400  49.316 172.5020  0.00  0.00     0.000 C
ATOM     60  C3  SGN F   4     -19.511  48.135 172.1520  0.00  0.00     0.000 C
ATOM     61  C4  SGN F   4     -18.329  48.118 173.1190  0.00  0.00     0.000 C
ATOM     62  C5  SGN F   4     -18.834  48.169 174.5740  0.00  0.00     0.000 C
ATOM     63  O5  SGN F   4     -19.638  49.290 174.7820  0.00  0.00     0.000 O
ATOM     64   N  SGN F   4     -21.581  49.358 171.6600  0.00  0.00     0.000 N
ATOM     66  HD  SGN F   4     -21.177  49.703 172.3440  0.00  0.00     0.000 HD
ATOM     66   S  SGN F   4     -22.211  50.822 171.3180  0.00  0.00     0.000 S
ATOM     67   O  SGN F   4     -22.758  51.325 172.5640  0.00  0.00     0.000 OA
ATOM     68   O  SGN F   4     -21.138  51.673 170.8080  0.00  0.00     0.000 OA
ATOM     69   O  SGN F   4     -23.236  50.522 170.3440  0.00  0.00     0.000 OA
ATOM     70   O  SGN F   4     -19.000  48.292 170.8360  0.00  0.00     0.000 O
ATOM     72  HD  SGN F   4     -18.597  48.638 171.5200  0.00  0.00     0.000 HD
ATOM     72   C  SGN F   4     -17.743  48.285 175.6070  0.00  0.00     0.000 C
ATOM     73   O  SGN F   4     -17.034  49.473 175.3380  0.00  0.00     0.000 O
ATOM     74   S  SGN F   4     -16.315  50.354 176.4000  0.00  0.00     0.000 S
ATOM     75   O  SGN F   4     -15.808  49.502 177.4240  0.00  0.00     0.000 OA
ATOM     76   O  SGN F   4     -15.245  51.072 175.7100  0.00  0.00     0.000 OA
ATOM     77   O  SGN F   4     -17.346  51.172 176.9070  0.00  0.00     0.000 OA
BRANCH 58 78
ATOM     78  O4  IDS F   5     -21.629  48.211 174.2760  0.00  0.00     0.000 O
BRANCH 78 82
ATOM     79  C1  IDS F   5     -23.916  45.915 175.5590  0.00  0.00     0.000 C
ATOM     80  C2  IDS F   5     -24.200  46.668 174.2670  0.00  0.00     0.000 C
ATOM     81  C3  IDS F   5     -24.026  48.179 174.4370  0.00  0.00     0.000 C
ATOM     82  C4  IDS F   5     -22.690  48.503 175.1390  0.00  0.00     0.000 C
ATOM     83  C5  IDS F   5     -22.557  47.663 176.4110  0.00  0.00     0.000 C
ATOM     84  O5  IDS F   5     -22.680  46.288 176.1120  0.00  0.00     0.000 O
ATOM     85   O  IDS F   5     -24.990  46.137 176.4390  0.00  0.00     0.000 OA
ATOM     86   O  IDS F   5     -23.276  46.244 173.3040  0.00  0.00     0.000 O
ATOM     87   S  IDS F   5     -23.363  46.408 171.7510  0.00  0.00     0.000 S
ATOM     88   O  IDS F   5     -24.094  47.620 171.4890  0.00  0.00     0.000 OA
ATOM     89   O  IDS F   5     -21.999  46.483 171.2790  0.00  0.00     0.000 OA
ATOM     90   O  IDS F   5     -24.074  45.243 171.2950  0.00  0.00     0.000 OA
ATOM     91   O  IDS F   5     -25.090  48.658 175.2340  0.00  0.00     0.000 O
ATOM     93  HD  IDS F   5     -24.694  48.756 175.9980  0.00  0.00     0.000 HD
ATOM     93   O  IDS F   5     -20.449  47.083 177.3400  0.00  0.00     0.000 OA
ATOM     94   O  IDS F   5     -21.088  49.020 177.7090  0.00  0.00     0.000 OA
ATOM     95   C  IDS F   5     -21.290  47.934 177.2010  0.00  0.00     0.000 C
ENDBRANCH 78 82
ENDBRANCH 58 78
ENDBRANCH 57 61
ENDBRANCH 41 57
ENDBRANCH 40 44
ENDBRANCH 20 40
ENDBRANCH 19 23
ENDBRANCH 1 19
TORSDOF 8
ENDMDL
MODEL 41
REMARK VINA RESULT:      -6.0      1.866      3.182
FFDIST PL LJ 2322 74 36 -1
ROOT
ATOM      1  C1  IDS F   1     -10.130  47.411 172.3000  0.00  0.00     0.000 C
ATOM      2  C2  IDS F   1      -9.543  47.737 170.9160  0.00  0.00     0.000 C
ATOM      3  C3  IDS F   1      -8.446  46.741 170.4700  0.00  0.00     0.000 C
ATOM      4  C4  IDS F   1      -8.730  45.274 170.8680  0.00  0.00     0.000 C
ATOM      5  C5  IDS F   1      -9.363  45.214 172.2630  0.00  0.00     0.000 C
ATOM      6  O5  IDS F   1     -10.470  46.051 172.3260  0.00  0.00     0.000 O
ATOM      7   S  IDS F   1     -10.548  48.341 168.4820  0.00  0.00     0.000 S
ATOM      8   O  IDS F   1      -9.327  47.883 167.8900  0.00  0.00     0.000 OA
ATOM      9   O  IDS F   1     -11.688  47.843 167.7690  0.00  0.00     0.000 OA
ATOM     10   O  IDS F   1     -10.582  49.770 168.6860  0.00  0.00     0.000 OA
ATOM     11   O  IDS F   1     -10.561  47.702 169.9360  0.00  0.00     0.000 O
ATOM     12   O  IDS F   1      -7.205  47.133 171.0510  0.00  0.00     0.000 O
ATOM     14  HD  IDS F   1      -6.553  46.624 171.3070  0.00  0.00     0.000 HD
ATOM     14   O  IDS F   1      -9.625  44.747 169.9200  0.00  0.00     0.000 O
ATOM     16  HD  IDS F   1      -8.973  44.237 170.1760  0.00  0.00     0.000 HD
ATOM     16   O  IDS F   1     -10.795  43.676 173.3810  0.00  0.00     0.000 OA
ATOM     17   O  IDS F   1      -9.024  42.868 172.6140  0.00  0.00     0.000 OA
ATOM     18   C  IDS F   1      -9.745  43.840 172.7750  0.00  0.00     0.000 C
ENDROOT
BRANCH 1 19
ATOM     19  O4  SGN F   2     -11.291  48.148 172.4820  0.00  0.00     0.000 O
BRANCH 19 23
ATOM     20  C1  SGN F   2     -14.919  48.160 174.5380  0.00  0.00     0.000 C
ATOM     21  C2  SGN F   2     -13.691  47.856 175.3820  0.00  0.00     0.000 C
ATOM     22  C3  SGN F   2     -12.420  48.401 174.7160  0.00  0.00     0.000 C
ATOM     23  C4  SGN F   2     -12.363  47.737 173.3030  0.00  0.00     0.000 C
ATOM     24  C5  SGN F   2     -13.612  48.143 172.5950  0.00  0.00     0.000 C
ATOM     25  O5  SGN F   2     -14.730  47.637 173.2520  0.00  0.00     0.000 O
ATOM     26   N  SGN F   2     -13.935  48.322 176.7680  0.00  0.00     0.000 N
ATOM     28  HD  SGN F   2     -13.482  48.764 177.3590  0.00  0.00     0.000 HD
ATOM     28   S  SGN F   2     -14.804  47.311 177.7840  0.00  0.00     0.000 S
ATOM     29   O  SGN F   2     -15.998  46.907 177.0760  0.00  0.00     0.000 OA
ATOM     30   O  SGN F   2     -13.916  46.201 178.0460  0.00  0.00     0.000 OA
ATOM     31   O  SGN F   2     -15.073  48.049 178.9650  0.00  0.00     0.000 OA
ATOM     32   O  SGN F   2     -11.300  48.009 175.5000  0.00  0.00     0.000 O
ATOM     34  HD  SGN F   2     -10.846  48.451 176.0910  0.00  0.00     0.000 HD
ATOM     34   C  SGN F   2     -13.672  47.622 171.1980  0.00  0.00     0.000 C
ATOM     35   O  SGN F   2     -13.504  46.250 171.3140  0.00  0.00     0.000 O
ATOM     36   S  SGN F   2     -13.661  45.207 170.2120  0.00  0.00     0.000 S
ATOM     37   O  SGN F   2     -12.411  44.490 170.2020  0.00  0.00     0.000 OA
ATOM     38   O  SGN F   2     -14.802  44.420 170.6250  0.00  0.00     0.000 OA
ATOM     39   O  SGN F   2     -13.907  45.931 168.9710  0.00  0.00     0.000 OA
BRANCH 20 40
ATOM     40  O4  IDS F   3     -15.174  49.537 174.4720  0.00  0.00     0.000 O
BRANCH 40 44
ATOM     41  C1  IDS F   3     -16.514  52.752 174.7170  0.00  0.00     0.000 C
ATOM     42  C2  IDS F   3     -16.530  51.835 175.9140  0.00  0.00     0.000 C
ATOM     43  C3  IDS F   3     -17.110  50.408 175.5800  0.00  0.00     0.000 C
ATOM     44  C4  IDS F   3     -16.545  49.861 174.2830  0.00  0.00     0.000 C
ATOM     45  C5  IDS F   3     -16.685  50.920 173.1910  0.00  0.00     0.000 C
ATOM     46  O5  IDS F   3     -15.986  52.088 173.5590  0.00  0.00     0.000 O
ATOM     47   O  IDS F   3     -15.051  50.995 178.6680  0.00  0.00     0.000 OA
ATOM     48   O  IDS F   3     -13.297  52.303 177.7670  0.00  0.00     0.000 OA
ATOM     49   O  IDS F   3     -15.479  53.245 178.1620  0.00  0.00     0.000 OA
ATOM     50   O  IDS F   3     -15.196  51.727 176.4230  0.00  0.00     0.000 O
ATOM     51   S  IDS F   3     -14.719  52.094 177.8360  0.00  0.00     0.000 S
ATOM     52   O  IDS F   3     -18.522  50.493 175.4170  0.00  0.00     0.000 O
ATOM     54  HD  IDS F   3     -17.963  50.951 175.8940  0.00  0.00     0.000 HD
ATOM     54   C  IDS F   3     -16.273  50.466 171.7860  0.00  0.00     0.000 C
ATOM     55   O  IDS F   3     -15.165  50.739 171.3290  0.00  0.00     0.000 OA
ATOM     56   O  IDS F   3     -17.039  49.802 171.0760  0.00  0.00     0.000 OA
BRANCH 41 57
ATOM     57  O4  SGN F   4     -17.808  53.238 174.5070  0.00  0.00     0.000 O
BRANCH 57 61
ATOM     58  C1  SGN F   4     -19.187  56.237 172.0880  0.00  0.00     0.000 C
ATOM     59  C2  SGN F   4     -19.632  54.812 171.7230  0.00  0.00     0.000 C
ATOM     60  C3  SGN F   4     -19.413  53.850 172.8780  0.00  0.00     0.000 C
ATOM     61  C4  SGN F   4     -17.959  53.964 173.3320  0.00  0.00     0.000 C
ATOM     62  C5  SGN F   4     -17.605  55.437 173.6110  0.00  0.00     0.000 C
ATOM     63  O5  SGN F   4     -17.845  56.228 172.4880  0.00  0.00     0.000 O
ATOM     64   N  SGN F   4     -21.013  54.803 171.2800  0.00  0.00     0.000 N
ATOM     66  HD  SGN F   4     -20.238  55.182 171.1990  0.00  0.00     0.000 HD
ATOM     66   S  SGN F   4     -21.300  55.100 169.7030  0.00  0.00     0.000 S
ATOM     67   O  SGN F   4     -20.965  56.495 169.4900  0.00  0.00     0.000 OA
ATOM     68   O  SGN F   4     -20.459  54.207 168.9090  0.00  0.00     0.000 OA
ATOM     69   O  SGN F   4     -22.717  54.844 169.5710  0.00  0.00     0.000 OA
ATOM     70   O  SGN F   4     -19.632  52.517 172.4390  0.00  0.00     0.000 O
ATOM     72  HD  SGN F   4     -18.858  52.895 172.3580  0.00  0.00     0.000 HD
ATOM     72   C  SGN F   4     -16.155  55.676 173.9440  0.00  0.00     0.000 C
ATOM     73   O  SGN F   4     -15.393  55.234 172.8440  0.00  0.00     0.000 O
ATOM     74   S  SGN F   4     -14.021  55.821 172.4040  0.00  0.00     0.000 S
ATOM     75   O  SGN F   4     -13.315  56.239 173.5700  0.00  0.00     0.000 OA
ATOM     76   O  SGN F   4     -13.311  54.764 171.6860  0.00  0.00     0.000 OA
ATOM     77   O  SGN F   4     -14.373  56.938 171.6180  0.00  0.00     0.000 OA
BRANCH 58 78
ATOM     78  O4  IDS F   5     -20.018  56.780 173.0850  0.00  0.00     0.000 O
BRANCH 78 82
ATOM     79  C1  IDS F   5     -21.150  59.623 174.7550  0.00  0.00     0.000 C
ATOM     80  C2  IDS F   5     -21.862  58.286 174.9070  0.00  0.00     0.000 C
ATOM     81  C3  IDS F   5     -22.203  57.663 173.5510  0.00  0.00     0.000 C
ATOM     82  C4  IDS F   5     -20.976  57.683 172.6140  0.00  0.00     0.000 C
ATOM     83  C5  IDS F   5     -20.376  59.090 172.5760  0.00  0.00     0.000 C
ATOM     84  O5  IDS F   5     -20.055  59.526 173.8810  0.00  0.00     0.000 O
ATOM     85   O  IDS F   5     -22.094  60.575 174.3350  0.00  0.00     0.000 OA
ATOM     86   O  IDS F   5     -20.999  57.405 175.5690  0.00  0.00     0.000 O
ATOM     87   S  IDS F   5     -21.362  56.069 176.2960  0.00  0.00     0.000 S
ATOM     88   O  IDS F   5     -22.499  55.507 175.6170  0.00  0.00     0.000 OA
ATOM     89   O  IDS F   5     -20.194  55.224 176.1920  0.00  0.00     0.000 OA
ATOM     90   O  IDS F   5     -21.681  56.457 177.6450  0.00  0.00     0.000 OA
ATOM     91   O  IDS F   5     -23.240  58.425 172.9650  0.00  0.00     0.000 O
ATOM     93  HD  IDS F   5     -22.796  58.889 172.3850  0.00  0.00     0.000 HD
ATOM     93   O  IDS F   5     -18.087  59.485 172.0790  0.00  0.00     0.000 OA
ATOM     94   O  IDS F   5     -19.300  59.076 170.4490  0.00  0.00     0.000 OA
ATOM     95   C  IDS F   5     -19.183  59.228 171.6500  0.00  0.00     0.000 C
ENDBRANCH 78 82
ENDBRANCH 58 78
ENDBRANCH 57 61
ENDBRANCH 41 57
ENDBRANCH 40 44
ENDBRANCH 20 40
ENDBRANCH 19 23
ENDBRANCH 1 19
TORSDOF 8
ENDMDL
MODEL 42
REMARK VINA RESULT:      -6.0      3.074     12.454
FFDIST PL LJ 2322 74 36 -1
ROOT
ATOM      1  C1  IDS F   1     -20.149  56.920 168.4330  0.00  0.00     0.000 C
ATOM      2  C2  IDS F   1     -21.175  56.222 167.5250  0.00  0.00     0.000 C
ATOM      3  C3  IDS F   1     -21.717  57.138 166.4020  0.00  0.00     0.000 C
ATOM      4  C4  IDS F   1     -20.653  58.081 165.7930  0.00  0.00     0.000 C
ATOM      5  C5  IDS F   1     -19.717  58.605 166.8870  0.00  0.00     0.000 C
ATOM      6  O5  IDS F   1     -19.194  57.547 167.6200  0.00  0.00     0.000 O
ATOM      7   S  IDS F   1     -21.310  53.863 166.2150  0.00  0.00     0.000 S
ATOM      8   O  IDS F   1     -22.258  54.444 165.3130  0.00  0.00     0.000 OA
ATOM      9   O  IDS F   1     -20.319  53.105 165.5070  0.00  0.00     0.000 OA
ATOM     10   O  IDS F   1     -21.926  53.128 167.2950  0.00  0.00     0.000 OA
ATOM     11   O  IDS F   1     -20.586  55.100 166.8990  0.00  0.00     0.000 O
ATOM     12   O  IDS F   1     -22.776  57.934 166.9290  0.00  0.00     0.000 O
ATOM     14  HD  IDS F   1     -22.995  58.742 166.7070  0.00  0.00     0.000 HD
ATOM     14   O  IDS F   1     -19.916  57.334 164.8570  0.00  0.00     0.000 O
ATOM     16  HD  IDS F   1     -20.136  58.142 164.6350  0.00  0.00     0.000 HD
ATOM     16   O  IDS F   1     -17.471  59.393 166.9250  0.00  0.00     0.000 OA
ATOM     17   O  IDS F   1     -18.751  60.374 165.5930  0.00  0.00     0.000 OA
ATOM     18   C  IDS F   1     -18.586  59.507 166.4360  0.00  0.00     0.000 C
ENDROOT
BRANCH 1 19
ATOM     19  O4  SGN F   2     -19.500  55.962 169.1980  0.00  0.00     0.000 O
BRANCH 19 23
ATOM     20  C1  SGN F   2     -19.490  54.181 172.9690  0.00  0.00     0.000 C
ATOM     21  C2  SGN F   2     -20.818  54.138 172.2300  0.00  0.00     0.000 C
ATOM     22  C3  SGN F   2     -20.608  54.291 170.7170  0.00  0.00     0.000 C
ATOM     23  C4  SGN F   2     -19.853  55.645 170.5280  0.00  0.00     0.000 C
ATOM     24  C5  SGN F   2     -18.573  55.524 171.2840  0.00  0.00     0.000 C
ATOM     25  O5  SGN F   2     -18.824  55.370 172.6440  0.00  0.00     0.000 O
ATOM     26   N  SGN F   2     -21.563  52.928 172.6530  0.00  0.00     0.000 N
ATOM     28  HD  SGN F   2     -22.012  52.307 172.2480  0.00  0.00     0.000 HD
ATOM     28   S  SGN F   2     -22.434  53.012 174.0820  0.00  0.00     0.000 S
ATOM     29   O  SGN F   2     -21.553  53.550 175.0950  0.00  0.00     0.000 OA
ATOM     30   O  SGN F   2     -23.539  53.896 173.7870  0.00  0.00     0.000 OA
ATOM     31   O  SGN F   2     -22.883  51.699 174.3670  0.00  0.00     0.000 OA
ATOM     32   O  SGN F   2     -21.885  54.336 170.0900  0.00  0.00     0.000 O
ATOM     34  HD  SGN F   2     -22.333  53.715 169.6860  0.00  0.00     0.000 HD
ATOM     34   C  SGN F   2     -17.712  56.736 171.1490  0.00  0.00     0.000 C
ATOM     35   O  SGN F   2     -18.512  57.796 171.5490  0.00  0.00     0.000 O
ATOM     36   S  SGN F   2     -18.078  59.240 171.7770  0.00  0.00     0.000 S
ATOM     37   O  SGN F   2     -18.950  60.024 170.9390  0.00  0.00     0.000 OA
ATOM     38   O  SGN F   2     -18.262  59.449 173.1970  0.00  0.00     0.000 OA
ATOM     39   O  SGN F   2     -16.679  59.334 171.3790  0.00  0.00     0.000 OA
BRANCH 20 40
ATOM     40  O4  IDS F   3     -18.689  53.073 172.6570  0.00  0.00     0.000 O
BRANCH 40 44
ATOM     41  C1  IDS F   3     -16.987  50.024 172.6530  0.00  0.00     0.000 C
ATOM     42  C2  IDS F   3     -18.421  50.086 173.1150  0.00  0.00     0.000 C
ATOM     43  C3  IDS F   3     -18.669  51.224 174.1780  0.00  0.00     0.000 C
ATOM     44  C4  IDS F   3     -18.003  52.526 173.7750  0.00  0.00     0.000 C
ATOM     45  C5  IDS F   3     -16.545  52.249 173.4080  0.00  0.00     0.000 C
ATOM     46  O5  IDS F   3     -16.483  51.331 172.3390  0.00  0.00     0.000 O
ATOM     47   O  IDS F   3     -21.524  49.671 172.2930  0.00  0.00     0.000 OA
ATOM     48   O  IDS F   3     -20.623  49.641 170.1050  0.00  0.00     0.000 OA
ATOM     49   O  IDS F   3     -19.906  48.055 171.7710  0.00  0.00     0.000 OA
ATOM     50   O  IDS F   3     -19.261  50.279 171.9720  0.00  0.00     0.000 O
ATOM     51   S  IDS F   3     -20.393  49.357 171.4970  0.00  0.00     0.000 S
ATOM     52   O  IDS F   3     -18.107  50.838 175.4290  0.00  0.00     0.000 O
ATOM     54  HD  IDS F   3     -18.438  50.379 174.7740  0.00  0.00     0.000 HD
ATOM     54   C  IDS F   3     -15.703  53.491 173.1010  0.00  0.00     0.000 C
ATOM     55   O  IDS F   3     -15.492  53.846 171.9440  0.00  0.00     0.000 OA
ATOM     56   O  IDS F   3     -15.220  54.180 174.0090  0.00  0.00     0.000 OA
BRANCH 41 57
ATOM     57  O4  SGN F   4     -16.227  49.382 173.6350  0.00  0.00     0.000 O
BRANCH 57 61
ATOM     58  C1  SGN F   4     -12.633  47.425 173.6860  0.00  0.00     0.000 C
ATOM     59  C2  SGN F   4     -12.601  48.913 174.0690  0.00  0.00     0.000 C
ATOM     60  C3  SGN F   4     -13.989  49.429 174.4070  0.00  0.00     0.000 C
ATOM     61  C4  SGN F   4     -14.924  49.093 173.2470  0.00  0.00     0.000 C
ATOM     62  C5  SGN F   4     -14.832  47.592 172.9090  0.00  0.00     0.000 C
ATOM     63  O5  SGN F   4     -13.517  47.229 172.6170  0.00  0.00     0.000 O
ATOM     64   N  SGN F   4     -11.671  49.143 175.1570  0.00  0.00     0.000 N
ATOM     66  HD  SGN F   4     -11.790  48.770 174.3850  0.00  0.00     0.000 HD
ATOM     66   S  SGN F   4     -10.107  49.397 174.7720  0.00  0.00     0.000 S
ATOM     67   O  SGN F   4      -9.609  48.133 174.2630  0.00  0.00     0.000 OA
ATOM     68   O  SGN F   4     -10.051  50.454 173.7640  0.00  0.00     0.000 OA
ATOM     69   O  SGN F   4      -9.509  49.759 176.0370  0.00  0.00     0.000 OA
ATOM     70   O  SGN F   4     -13.954  50.842 174.5470  0.00  0.00     0.000 O
ATOM     72  HD  SGN F   4     -14.073  50.469 173.7740  0.00  0.00     0.000 HD
ATOM     72   C  SGN F   4     -15.621  47.178 171.6940  0.00  0.00     0.000 C
ATOM     73   O  SGN F   4     -15.125  47.914 170.6000  0.00  0.00     0.000 O
ATOM     74   S  SGN F   4     -15.108  47.430 169.1210  0.00  0.00     0.000 S
ATOM     75   O  SGN F   4     -16.257  46.614 168.9010  0.00  0.00     0.000 OA
ATOM     76   O  SGN F   4     -15.118  48.624 168.2770  0.00  0.00     0.000 OA
ATOM     77   O  SGN F   4     -13.933  46.654 169.0380  0.00  0.00     0.000 OA
BRANCH 58 78
ATOM     78  O4  IDS F   5     -12.981  46.631 174.7940  0.00  0.00     0.000 O
BRANCH 78 82
ATOM     79  C1  IDS F   5     -13.378  44.171 177.2310  0.00  0.00     0.000 C
ATOM     80  C2  IDS F   5     -12.647  45.471 177.5380  0.00  0.00     0.000 C
ATOM     81  C3  IDS F   5     -11.547  45.763 176.5150  0.00  0.00     0.000 C
ATOM     82  C4  IDS F   5     -12.078  45.600 175.0750  0.00  0.00     0.000 C
ATOM     83  C5  IDS F   5     -12.787  44.251 174.9340  0.00  0.00     0.000 C
ATOM     84  O5  IDS F   5     -13.814  44.129 175.8970  0.00  0.00     0.000 O
ATOM     85   O  IDS F   5     -12.523  43.102 177.5540  0.00  0.00     0.000 OA
ATOM     86   O  IDS F   5     -13.574  46.518 177.4700  0.00  0.00     0.000 O
ATOM     87   S  IDS F   5     -13.439  47.961 178.0570  0.00  0.00     0.000 S
ATOM     88   O  IDS F   5     -12.041  48.301 178.0370  0.00  0.00     0.000 OA
ATOM     89   O  IDS F   5     -14.221  48.819 177.1970  0.00  0.00     0.000 OA
ATOM     90   O  IDS F   5     -13.947  47.862 179.4000  0.00  0.00     0.000 OA
ATOM     91   O  IDS F   5     -10.496  44.840 176.7230  0.00  0.00     0.000 O
ATOM     93  HD  IDS F   5     -10.635  44.283 176.0760  0.00  0.00     0.000 HD
ATOM     93   O  IDS F   5     -14.498  43.872 173.3300  0.00  0.00     0.000 OA
ATOM     94   O  IDS F   5     -12.559  43.852 172.5950  0.00  0.00     0.000 OA
ATOM     95   C  IDS F   5     -13.316  43.973 173.5400  0.00  0.00     0.000 C
ENDBRANCH 78 82
ENDBRANCH 58 78
ENDBRANCH 57 61
ENDBRANCH 41 57
ENDBRANCH 40 44
ENDBRANCH 20 40
ENDBRANCH 19 23
ENDBRANCH 1 19
TORSDOF 8
ENDMDL
MODEL 43
REMARK VINA RESULT:      -6.0      3.560     11.506
FFDIST PL LJ 2322 74 36 -1
ROOT
ATOM      1  C1  IDS F   1     -15.495  57.593 170.2240  0.00  0.00     0.000 C
ATOM      2  C2  IDS F   1     -14.175  57.636 169.4370  0.00  0.00     0.000 C
ATOM      3  C3  IDS F   1     -14.285  57.002 168.0290  0.00  0.00     0.000 C
ATOM      4  C4  IDS F   1     -15.627  57.287 167.3150  0.00  0.00     0.000 C
ATOM      5  C5  IDS F   1     -16.784  57.242 168.3190  0.00  0.00     0.000 C
ATOM      6  O5  IDS F   1     -16.519  58.077 169.3970  0.00  0.00     0.000 O
ATOM      7   S  IDS F   1     -12.312  59.513 168.8840  0.00  0.00     0.000 S
ATOM      8   O  IDS F   1     -11.926  58.757 167.7310  0.00  0.00     0.000 OA
ATOM      9   O  IDS F   1     -12.425  60.909 168.5740  0.00  0.00     0.000 OA
ATOM     10   O  IDS F   1     -11.489  59.251 170.0410  0.00  0.00     0.000 OA
ATOM     11   O  IDS F   1     -13.759  58.975 169.2590  0.00  0.00     0.000 O
ATOM     12   O  IDS F   1     -14.129  55.590 168.1480  0.00  0.00     0.000 O
ATOM     14  HD  IDS F   1     -14.499  54.972 167.6680  0.00  0.00     0.000 HD
ATOM     14   O  IDS F   1     -15.539  58.573 166.7520  0.00  0.00     0.000 O
ATOM     16  HD  IDS F   1     -15.909  57.954 166.2720  0.00  0.00     0.000 HD
ATOM     16   O  IDS F   1     -18.945  58.237 168.4210  0.00  0.00     0.000 OA
ATOM     17   O  IDS F   1     -18.544  57.121 166.6980  0.00  0.00     0.000 OA
ATOM     18   C  IDS F   1     -18.165  57.551 167.7750  0.00  0.00     0.000 C
ENDROOT
BRANCH 1 19
ATOM     19  O4  SGN F   2     -15.394  58.437 171.3200  0.00  0.00     0.000 O
BRANCH 19 23
ATOM     20  C1  SGN F   2     -16.019  56.123 174.7330  0.00  0.00     0.000 C
ATOM     21  C2  SGN F   2     -17.215  56.937 174.2690  0.00  0.00     0.000 C
ATOM     22  C3  SGN F   2     -17.093  57.291 172.7790  0.00  0.00     0.000 C
ATOM     23  C4  SGN F   2     -15.742  58.063 172.6360  0.00  0.00     0.000 C
ATOM     24  C5  SGN F   2     -14.673  57.133 173.1040  0.00  0.00     0.000 C
ATOM     25  O5  SGN F   2     -14.845  56.834 174.4520  0.00  0.00     0.000 O
ATOM     26   N  SGN F   2     -18.458  56.228 174.6560  0.00  0.00     0.000 N
ATOM     28  HD  SGN F   2     -19.207  56.037 174.2650  0.00  0.00     0.000 HD
ATOM     28   S  SGN F   2     -19.010  56.432 176.2260  0.00  0.00     0.000 S
ATOM     29   O  SGN F   2     -17.892  56.196 177.1120  0.00  0.00     0.000 OA
ATOM     30   O  SGN F   2     -19.476  57.799 176.2770  0.00  0.00     0.000 OA
ATOM     31   O  SGN F   2     -20.075  55.515 176.4080  0.00  0.00     0.000 OA
ATOM     32   O  SGN F   2     -18.188  58.127 172.4260  0.00  0.00     0.000 O
ATOM     34  HD  SGN F   2     -18.937  57.936 172.0350  0.00  0.00     0.000 HD
ATOM     34   C  SGN F   2     -13.307  57.720 172.9730  0.00  0.00     0.000 C
ATOM     35   O  SGN F   2     -13.360  58.922 173.6640  0.00  0.00     0.000 O
ATOM     36   S  SGN F   2     -12.190  59.840 174.0010  0.00  0.00     0.000 S
ATOM     37   O  SGN F   2     -12.565  61.125 173.4660  0.00  0.00     0.000 OA
ATOM     38   O  SGN F   2     -12.103  59.793 175.4440  0.00  0.00     0.000 OA
ATOM     39   O  SGN F   2     -11.009  59.283 173.3550  0.00  0.00     0.000 OA
BRANCH 20 40
ATOM     40  O4  IDS F   3     -15.983  54.862 174.1210  0.00  0.00     0.000 O
BRANCH 40 44
ATOM     41  C1  IDS F   3     -15.531  51.408 173.8790  0.00  0.00     0.000 C
ATOM     42  C2  IDS F   3     -15.723  52.050 175.2290  0.00  0.00     0.000 C
ATOM     43  C3  IDS F   3     -14.771  53.287 175.4560  0.00  0.00     0.000 C
ATOM     44  C4  IDS F   3     -14.733  54.197 174.2430  0.00  0.00     0.000 C
ATOM     45  C5  IDS F   3     -14.464  53.356 172.9960  0.00  0.00     0.000 C
ATOM     46  O5  IDS F   3     -15.481  52.392 172.8350  0.00  0.00     0.000 O
ATOM     47   O  IDS F   3     -17.827  52.772 177.5810  0.00  0.00     0.000 OA
ATOM     48   O  IDS F   3     -19.412  52.207 175.9170  0.00  0.00     0.000 OA
ATOM     49   O  IDS F   3     -17.749  50.623 176.6430  0.00  0.00     0.000 OA
ATOM     50   O  IDS F   3     -17.094  52.445 175.3560  0.00  0.00     0.000 O
ATOM     51   S  IDS F   3     -18.087  51.983 176.4320  0.00  0.00     0.000 S
ATOM     52   O  IDS F   3     -13.441  52.830 175.6770  0.00  0.00     0.000 O
ATOM     54  HD  IDS F   3     -14.212  52.474 175.8420  0.00  0.00     0.000 HD
ATOM     54   C  IDS F   3     -14.269  54.154 171.7020  0.00  0.00     0.000 C
ATOM     55   O  IDS F   3     -15.188  54.298 170.8990  0.00  0.00     0.000 OA
ATOM     56   O  IDS F   3     -13.184  54.686 171.4330  0.00  0.00     0.000 OA
BRANCH 41 57
ATOM     57  O4  SGN F   4     -14.380  50.616 173.9180  0.00  0.00     0.000 O
BRANCH 57 61
ATOM     58  C1  SGN F   4     -13.360  46.816 172.7920  0.00  0.00     0.000 C
ATOM     59  C2  SGN F   4     -14.194  47.623 171.7840  0.00  0.00     0.000 C
ATOM     60  C3  SGN F   4     -14.173  49.106 172.1060  0.00  0.00     0.000 C
ATOM     61  C4  SGN F   4     -14.590  49.289 173.5650  0.00  0.00     0.000 C
ATOM     62  C5  SGN F   4     -13.731  48.392 174.4770  0.00  0.00     0.000 C
ATOM     63  O5  SGN F   4     -13.824  47.055 174.0910  0.00  0.00     0.000 O
ATOM     64   N  SGN F   4     -13.747  47.369 170.4280  0.00  0.00     0.000 N
ATOM     66  HD  SGN F   4     -13.978  47.013 171.1830  0.00  0.00     0.000 HD
ATOM     66   S  SGN F   4     -14.385  46.085 169.6510  0.00  0.00     0.000 S
ATOM     67   O  SGN F   4     -13.865  44.909 170.3240  0.00  0.00     0.000 OA
ATOM     68   O  SGN F   4     -15.841  46.170 169.7460  0.00  0.00     0.000 OA
ATOM     69   O  SGN F   4     -13.875  46.224 168.3060  0.00  0.00     0.000 OA
ATOM     70   O  SGN F   4     -15.116  49.788 171.2920  0.00  0.00     0.000 O
ATOM     72  HD  SGN F   4     -15.347  49.432 172.0470  0.00  0.00     0.000 HD
ATOM     72   C  SGN F   4     -14.146  48.401 175.9260  0.00  0.00     0.000 C
ATOM     73   O  SGN F   4     -15.479  47.951 175.9840  0.00  0.00     0.000 O
ATOM     74   S  SGN F   4     -16.120  47.180 177.1740  0.00  0.00     0.000 S
ATOM     75   O  SGN F   4     -15.529  47.649 178.3840  0.00  0.00     0.000 OA
ATOM     76   O  SGN F   4     -17.558  47.442 177.1330  0.00  0.00     0.000 OA
ATOM     77   O  SGN F   4     -15.754  45.839 176.9380  0.00  0.00     0.000 OA
BRANCH 58 78
ATOM     78  O4  IDS F   5     -11.993  47.125 172.6680  0.00  0.00     0.000 O
BRANCH 78 82
ATOM     79  C1  IDS F   5      -8.509  47.249 172.6770  0.00  0.00     0.000 C
ATOM     80  C2  IDS F   5      -9.282  46.949 171.4000  0.00  0.00     0.000 C
ATOM     81  C3  IDS F   5     -10.289  45.813 171.5950  0.00  0.00     0.000 C
ATOM     82  C4  IDS F   5     -11.133  46.040 172.8680  0.00  0.00     0.000 C
ATOM     83  C5  IDS F   5     -10.211  46.333 174.0540  0.00  0.00     0.000 C
ATOM     84  O5  IDS F   5      -9.373  47.434 173.7690  0.00  0.00     0.000 O
ATOM     85   O  IDS F   5      -7.590  46.206 172.8870  0.00  0.00     0.000 OA
ATOM     86   O  IDS F   5     -10.003  48.096 171.0480  0.00  0.00     0.000 O
ATOM     87   S  IDS F   5     -10.636  48.445 169.6610  0.00  0.00     0.000 S
ATOM     88   O  IDS F   5     -11.004  47.204 169.0340  0.00  0.00     0.000 OA
ATOM     89   O  IDS F   5     -11.785  49.276 169.9420  0.00  0.00     0.000 OA
ATOM     90   O  IDS F   5      -9.591  49.122 168.9390  0.00  0.00     0.000 OA
ATOM     91   O  IDS F   5      -9.569  44.604 171.7310  0.00  0.00     0.000 O
ATOM     93  HD  IDS F   5      -9.610  44.483 172.5880  0.00  0.00     0.000 HD
ATOM     93   O  IDS F   5     -10.921  47.596 175.9370  0.00  0.00     0.000 OA
ATOM     94   O  IDS F   5     -11.571  45.629 175.8810  0.00  0.00     0.000 OA
ATOM     95   C  IDS F   5     -10.941  46.534 175.3690  0.00  0.00     0.000 C
ENDBRANCH 78 82
ENDBRANCH 58 78
ENDBRANCH 57 61
ENDBRANCH 41 57
ENDBRANCH 40 44
ENDBRANCH 20 40
ENDBRANCH 19 23
ENDBRANCH 1 19
TORSDOF 8
ENDMDL
MODEL 44
REMARK VINA RESULT:      -5.9      2.619      3.887
FFDIST PL LJ 2322 74 36 -1
ROOT
ATOM      1  C1  IDS F   1      -9.138  47.593 172.2880  0.00  0.00     0.000 C
ATOM      2  C2  IDS F   1      -8.758  48.503 171.1080  0.00  0.00     0.000 C
ATOM      3  C3  IDS F   1      -7.347  49.125 171.2480  0.00  0.00     0.000 C
ATOM      4  C4  IDS F   1      -6.298  48.169 171.8630  0.00  0.00     0.000 C
ATOM      5  C5  IDS F   1      -6.931  47.332 172.9800  0.00  0.00     0.000 C
ATOM      6  O5  IDS F   1      -8.079  46.702 172.5170  0.00  0.00     0.000 O
ATOM      7   S  IDS F   1      -8.846  48.315 168.4140  0.00  0.00     0.000 S
ATOM      8   O  IDS F   1      -7.814  49.304 168.3340  0.00  0.00     0.000 OA
ATOM      9   O  IDS F   1      -8.585  47.222 167.5240  0.00  0.00     0.000 OA
ATOM     10   O  IDS F   1     -10.174  48.863 168.2700  0.00  0.00     0.000 OA
ATOM     11   O  IDS F   1      -8.770  47.765 169.9030  0.00  0.00     0.000 O
ATOM     12   O  IDS F   1      -7.437  50.286 172.0700  0.00  0.00     0.000 O
ATOM     14  HD  IDS F   1      -6.842  50.597 172.6170  0.00  0.00     0.000 HD
ATOM     14   O  IDS F   1      -5.847  47.323 170.8350  0.00  0.00     0.000 O
ATOM     16  HD  IDS F   1      -5.252  47.634 171.3820  0.00  0.00     0.000 HD
ATOM     16   O  IDS F   1      -6.467  45.201 173.9340  0.00  0.00     0.000 OA
ATOM     17   O  IDS F   1      -4.875  46.558 173.9350  0.00  0.00     0.000 OA
ATOM     18   C  IDS F   1      -6.035  46.309 173.6490  0.00  0.00     0.000 C
ENDROOT
BRANCH 1 19
ATOM     19  O4  SGN F   2     -10.257  46.851 171.9430  0.00  0.00     0.000 O
BRANCH 19 23
ATOM     20  C1  SGN F   2     -13.723  45.883 174.0510  0.00  0.00     0.000 C
ATOM     21  C2  SGN F   2     -12.550  46.346 174.9000  0.00  0.00     0.000 C
ATOM     22  C3  SGN F   2     -11.565  47.179 174.0670  0.00  0.00     0.000 C
ATOM     23  C4  SGN F   2     -11.129  46.259 172.8820  0.00  0.00     0.000 C
ATOM     24  C5  SGN F   2     -12.374  45.911 172.1370  0.00  0.00     0.000 C
ATOM     25  O5  SGN F   2     -13.235  45.175 172.9450  0.00  0.00     0.000 O
ATOM     26   N  SGN F   2     -13.073  47.008 176.1200  0.00  0.00     0.000 N
ATOM     28  HD  SGN F   2     -12.888  47.734 176.5540  0.00  0.00     0.000 HD
ATOM     28   S  SGN F   2     -13.530  46.027 177.3990  0.00  0.00     0.000 S
ATOM     29   O  SGN F   2     -14.393  44.995 176.8690  0.00  0.00     0.000 OA
ATOM     30   O  SGN F   2     -12.288  45.495 177.9160  0.00  0.00     0.000 OA
ATOM     31   O  SGN F   2     -14.169  46.863 178.3490  0.00  0.00     0.000 OA
ATOM     32   O  SGN F   2     -10.449  47.504 174.8870  0.00  0.00     0.000 O
ATOM     34  HD  SGN F   2     -10.264  48.230 175.3210  0.00  0.00     0.000 HD
ATOM     34   C  SGN F   2     -12.104  45.072 170.9330  0.00  0.00     0.000 C
ATOM     35   O  SGN F   2     -11.398  43.975 171.4050  0.00  0.00     0.000 O
ATOM     36   S  SGN F   2     -11.027  42.716 170.6280  0.00  0.00     0.000 S
ATOM     37   O  SGN F   2      -9.597  42.608 170.7650  0.00  0.00     0.000 OA
ATOM     38   O  SGN F   2     -11.774  41.661 171.2770  0.00  0.00     0.000 OA
ATOM     39   O  SGN F   2     -11.448  42.926 169.2480  0.00  0.00     0.000 OA
BRANCH 20 40
ATOM     40  O4  IDS F   3     -14.513  46.962 173.6290  0.00  0.00     0.000 O
BRANCH 40 44
ATOM     41  C1  IDS F   3     -17.138  49.234 173.2560  0.00  0.00     0.000 C
ATOM     42  C2  IDS F   3     -16.895  48.576 174.5910  0.00  0.00     0.000 C
ATOM     43  C3  IDS F   3     -16.751  47.009 174.4800  0.00  0.00     0.000 C
ATOM     44  C4  IDS F   3     -15.856  46.607 173.3230  0.00  0.00     0.000 C
ATOM     45  C5  IDS F   3     -16.313  47.336 172.0600  0.00  0.00     0.000 C
ATOM     46  O5  IDS F   3     -16.241  48.731 172.2550  0.00  0.00     0.000 O
ATOM     47   O  IDS F   3     -15.534  48.862 177.5140  0.00  0.00     0.000 OA
ATOM     48   O  IDS F   3     -14.432  50.686 176.4850  0.00  0.00     0.000 OA
ATOM     49   O  IDS F   3     -16.836  50.591 176.6100  0.00  0.00     0.000 OA
ATOM     50   O  IDS F   3     -15.717  49.146 175.1730  0.00  0.00     0.000 O
ATOM     51   S  IDS F   3     -15.618  49.872 176.5220  0.00  0.00     0.000 S
ATOM     52   O  IDS F   3     -18.029  46.429 174.2380  0.00  0.00     0.000 O
ATOM     54  HD  IDS F   3     -17.786  47.148 174.6560  0.00  0.00     0.000 HD
ATOM     54   C  IDS F   3     -15.582  46.934 170.7750  0.00  0.00     0.000 C
ATOM     55   O  IDS F   3     -14.659  47.612 170.3300  0.00  0.00     0.000 OA
ATOM     56   O  IDS F   3     -15.892  45.909 170.1540  0.00  0.00     0.000 OA
BRANCH 41 57
ATOM     57  O4  SGN F   4     -18.480  49.056 172.9060  0.00  0.00     0.000 O
BRANCH 57 61
ATOM     58  C1  SGN F   4     -21.074  52.027 171.8150  0.00  0.00     0.000 C
ATOM     59  C2  SGN F   4     -21.023  50.797 170.8940  0.00  0.00     0.000 C
ATOM     60  C3  SGN F   4     -20.359  49.617 171.5800  0.00  0.00     0.000 C
ATOM     61  C4  SGN F   4     -19.000  50.069 172.1100  0.00  0.00     0.000 C
ATOM     62  C5  SGN F   4     -19.161  51.338 172.9680  0.00  0.00     0.000 C
ATOM     63  O5  SGN F   4     -19.781  52.354 172.2410  0.00  0.00     0.000 O
ATOM     64   N  SGN F   4     -22.350  50.457 170.4180  0.00  0.00     0.000 N
ATOM     66  HD  SGN F   4     -21.772  51.092 170.5310  0.00  0.00     0.000 HD
ATOM     66   S  SGN F   4     -22.888  51.212 169.0770  0.00  0.00     0.000 S
ATOM     67   O  SGN F   4     -23.091  52.599 169.4510  0.00  0.00     0.000 OA
ATOM     68   O  SGN F   4     -21.873  51.069 168.0340  0.00  0.00     0.000 OA
ATOM     69   O  SGN F   4     -24.128  50.529 168.7870  0.00  0.00     0.000 OA
ATOM     70   O  SGN F   4     -20.139  48.576 170.6380  0.00  0.00     0.000 O
ATOM     72  HD  SGN F   4     -19.561  49.211 170.7500  0.00  0.00     0.000 HD
ATOM     72   C  SGN F   4     -17.862  51.941 173.4370  0.00  0.00     0.000 C
ATOM     73   O  SGN F   4     -17.114  52.270 172.2900  0.00  0.00     0.000 O
ATOM     74   S  SGN F   4     -16.091  53.438 172.1850  0.00  0.00     0.000 S
ATOM     75   O  SGN F   4     -15.459  53.599 173.4530  0.00  0.00     0.000 OA
ATOM     76   O  SGN F   4     -15.133  53.079 171.1410  0.00  0.00     0.000 OA
ATOM     77   O  SGN F   4     -16.895  54.559 171.8910  0.00  0.00     0.000 OA
BRANCH 58 78
ATOM     78  O4  IDS F   5     -21.934  51.798 172.9050  0.00  0.00     0.000 O
BRANCH 78 82
ATOM     79  C1  IDS F   5     -24.159  51.953 175.5830  0.00  0.00     0.000 C
ATOM     80  C2  IDS F   5     -24.594  51.405 174.2310  0.00  0.00     0.000 C
ATOM     81  C3  IDS F   5     -24.260  52.369 173.0900  0.00  0.00     0.000 C
ATOM     82  C4  IDS F   5     -22.800  52.858 173.1930  0.00  0.00     0.000 C
ATOM     83  C5  IDS F   5     -22.524  53.370 174.6090  0.00  0.00     0.000 C
ATOM     84  O5  IDS F   5     -22.819  52.370 175.5620  0.00  0.00     0.000 O
ATOM     85   O  IDS F   5     -25.041  52.989 175.9380  0.00  0.00     0.000 OA
ATOM     86   O  IDS F   5     -23.891  50.217 173.9970  0.00  0.00     0.000 O
ATOM     87   S  IDS F   5     -24.229  49.087 172.9700  0.00  0.00     0.000 S
ATOM     88   O  IDS F   5     -24.885  49.709 171.8500  0.00  0.00     0.000 OA
ATOM     89   O  IDS F   5     -22.966  48.490 172.5990  0.00  0.00     0.000 OA
ATOM     90   O  IDS F   5     -25.108  48.195 173.6780  0.00  0.00     0.000 OA
ATOM     91   O  IDS F   5     -25.125  53.483 173.1880  0.00  0.00     0.000 O
ATOM     93  HD  IDS F   5     -24.596  54.073 173.5370  0.00  0.00     0.000 HD
ATOM     93   O  IDS F   5     -20.347  53.377 175.5590  0.00  0.00     0.000 OA
ATOM     94   O  IDS F   5     -20.739  54.899 174.2080  0.00  0.00     0.000 OA
ATOM     95   C  IDS F   5     -21.121  53.912 174.8080  0.00  0.00     0.000 C
ENDBRANCH 78 82
ENDBRANCH 58 78
ENDBRANCH 57 61
ENDBRANCH 41 57
ENDBRANCH 40 44
ENDBRANCH 20 40
ENDBRANCH 19 23
ENDBRANCH 1 19
TORSDOF 8
ENDMDL
MODEL 45
REMARK VINA RESULT:      -5.9      2.780      5.040
FFDIST PL LJ 2322 74 36 -1
ROOT
ATOM      1  C1  IDS F   1     -11.917  47.919 173.0670  0.00  0.00     0.000 C
ATOM      2  C2  IDS F   1     -12.005  46.533 173.7260  0.00  0.00     0.000 C
ATOM      3  C3  IDS F   1     -10.753  45.658 173.4740  0.00  0.00     0.000 C
ATOM      4  C4  IDS F   1      -9.422  46.445 173.4910  0.00  0.00     0.000 C
ATOM      5  C5  IDS F   1      -9.604  47.814 172.8260  0.00  0.00     0.000 C
ATOM      6  O5  IDS F   1     -10.677  48.487 173.3950  0.00  0.00     0.000 O
ATOM      7   S  IDS F   1     -12.660  45.593 176.1730  0.00  0.00     0.000 S
ATOM      8   O  IDS F   1     -11.893  44.415 175.9010  0.00  0.00     0.000 OA
ATOM      9   O  IDS F   1     -12.394  46.092 177.4910  0.00  0.00     0.000 OA
ATOM     10   O  IDS F   1     -14.069  45.433 175.8980  0.00  0.00     0.000 OA
ATOM     11   O  IDS F   1     -12.141  46.669 175.1270  0.00  0.00     0.000 O
ATOM     12   O  IDS F   1     -10.885  45.024 172.2040  0.00  0.00     0.000 O
ATOM     14  HD  IDS F   1     -10.257  44.817 171.6450  0.00  0.00     0.000 HD
ATOM     14   O  IDS F   1      -9.054  46.619 174.8370  0.00  0.00     0.000 O
ATOM     16  HD  IDS F   1      -8.426  46.412 174.2780  0.00  0.00     0.000 HD
ATOM     16   O  IDS F   1      -8.519  49.923 173.0220  0.00  0.00     0.000 OA
ATOM     17   O  IDS F   1      -7.273  48.304 172.5720  0.00  0.00     0.000 OA
ATOM     18   C  IDS F   1      -8.394  48.725 172.8090  0.00  0.00     0.000 C
ENDROOT
BRANCH 1 19
ATOM     19  O4  SGN F   2     -12.913  48.730 173.5890  0.00  0.00     0.000 O
BRANCH 19 23
ATOM     20  C1  SGN F   2     -17.080  48.909 173.5790  0.00  0.00     0.000 C
ATOM     21  C2  SGN F   2     -16.454  48.336 174.8410  0.00  0.00     0.000 C
ATOM     22  C3  SGN F   2     -15.000  48.805 174.9920  0.00  0.00     0.000 C
ATOM     23  C4  SGN F   2     -14.268  48.346 173.6910  0.00  0.00     0.000 C
ATOM     24  C5  SGN F   2     -14.976  49.003 172.5530  0.00  0.00     0.000 C
ATOM     25  O5  SGN F   2     -16.292  48.555 172.4760  0.00  0.00     0.000 O
ATOM     26   N  SGN F   2     -17.342  48.628 175.9920  0.00  0.00     0.000 N
ATOM     28  HD  SGN F   2     -17.229  48.921 176.7990  0.00  0.00     0.000 HD
ATOM     28   S  SGN F   2     -18.642  47.601 176.2470  0.00  0.00     0.000 S
ATOM     29   O  SGN F   2     -19.334  47.455 174.9860  0.00  0.00     0.000 OA
ATOM     30   O  SGN F   2     -18.049  46.362 176.6970  0.00  0.00     0.000 OA
ATOM     31   O  SGN F   2     -19.437  48.192 177.2610  0.00  0.00     0.000 OA
ATOM     32   O  SGN F   2     -14.440  48.168 176.1340  0.00  0.00     0.000 O
ATOM     34  HD  SGN F   2     -14.328  48.460 176.9410  0.00  0.00     0.000 HD
ATOM     34   C  SGN F   2     -14.348  48.697 171.2350  0.00  0.00     0.000 C
ATOM     35   O  SGN F   2     -14.313  47.312 171.1620  0.00  0.00     0.000 O
ATOM     36   S  SGN F   2     -13.937  46.464 169.9510  0.00  0.00     0.000 S
ATOM     37   O  SGN F   2     -12.880  45.604 170.4180  0.00  0.00     0.000 OA
ATOM     38   O  SGN F   2     -15.161  45.777 169.6010  0.00  0.00     0.000 OA
ATOM     39   O  SGN F   2     -13.499  47.382 168.9070  0.00  0.00     0.000 OA
BRANCH 20 40
ATOM     40  O4  IDS F   3     -17.214  50.302 173.6550  0.00  0.00     0.000 O
BRANCH 40 44
ATOM     41  C1  IDS F   3     -18.790  53.414 173.5050  0.00  0.00     0.000 C
ATOM     42  C2  IDS F   3     -19.613  52.159 173.6490  0.00  0.00     0.000 C
ATOM     43  C3  IDS F   3     -19.226  51.053 172.5950  0.00  0.00     0.000 C
ATOM     44  C4  IDS F   3     -17.722  50.898 172.4680  0.00  0.00     0.000 C
ATOM     45  C5  IDS F   3     -17.093  52.276 172.2650  0.00  0.00     0.000 C
ATOM     46  O5  IDS F   3     -17.395  53.110 173.3610  0.00  0.00     0.000 O
ATOM     47   O  IDS F   3     -21.157  50.186 175.6990  0.00  0.00     0.000 OA
ATOM     48   O  IDS F   3     -19.936  51.409 177.3150  0.00  0.00     0.000 OA
ATOM     49   O  IDS F   3     -21.452  52.511 175.8020  0.00  0.00     0.000 OA
ATOM     50   O  IDS F   3     -19.451  51.659 174.9810  0.00  0.00     0.000 O
ATOM     51   S  IDS F   3     -20.560  51.432 176.0190  0.00  0.00     0.000 S
ATOM     52   O  IDS F   3     -19.715  51.425 171.3110  0.00  0.00     0.000 O
ATOM     54  HD  IDS F   3     -20.000  51.590 172.1120  0.00  0.00     0.000 HD
ATOM     54   C  IDS F   3     -15.585  52.270 171.9920  0.00  0.00     0.000 C
ATOM     55   O  IDS F   3     -14.775  52.493 172.8890  0.00  0.00     0.000 OA
ATOM     56   O  IDS F   3     -15.138  52.029 170.8630  0.00  0.00     0.000 OA
BRANCH 41 57
ATOM     57  O4  SGN F   4     -19.287  54.154 172.4270  0.00  0.00     0.000 O
BRANCH 57 61
ATOM     58  C1  SGN F   4     -19.973  58.093 171.5560  0.00  0.00     0.000 C
ATOM     59  C2  SGN F   4     -18.502  57.647 171.5700  0.00  0.00     0.000 C
ATOM     60  C3  SGN F   4     -18.380  56.135 171.5010  0.00  0.00     0.000 C
ATOM     61  C4  SGN F   4     -19.237  55.530 172.6110  0.00  0.00     0.000 C
ATOM     62  C5  SGN F   4     -20.671  56.091 172.5390  0.00  0.00     0.000 C
ATOM     63  O5  SGN F   4     -20.664  57.484 172.6100  0.00  0.00     0.000 O
ATOM     64   N  SGN F   4     -17.761  58.289 170.5010  0.00  0.00     0.000 N
ATOM     66  HD  SGN F   4     -18.313  58.405 171.1580  0.00  0.00     0.000 HD
ATOM     66   S  SGN F   4     -17.127  59.761 170.8010  0.00  0.00     0.000 S
ATOM     67   O  SGN F   4     -18.254  60.666 170.9190  0.00  0.00     0.000 OA
ATOM     68   O  SGN F   4     -16.355  59.683 172.0400  0.00  0.00     0.000 OA
ATOM     69   O  SGN F   4     -16.327  60.022 169.6260  0.00  0.00     0.000 OA
ATOM     70   O  SGN F   4     -17.031  55.752 171.7290  0.00  0.00     0.000 O
ATOM     72  HD  SGN F   4     -17.584  55.868 172.3860  0.00  0.00     0.000 HD
ATOM     72   C  SGN F   4     -21.566  55.654 173.6690  0.00  0.00     0.000 C
ATOM     73   O  SGN F   4     -20.974  56.096 174.8690  0.00  0.00     0.000 O
ATOM     74   S  SGN F   4     -21.744  56.485 176.1640  0.00  0.00     0.000 S
ATOM     75   O  SGN F   4     -22.902  55.660 176.2650  0.00  0.00     0.000 OA
ATOM     76   O  SGN F   4     -20.829  56.280 177.2860  0.00  0.00     0.000 OA
ATOM     77   O  SGN F   4     -22.116  57.827 175.9400  0.00  0.00     0.000 OA
BRANCH 58 78
ATOM     78  O4  IDS F   5     -20.570  57.807 170.3140  0.00  0.00     0.000 O
BRANCH 78 82
ATOM     79  C1  IDS F   5     -22.508  57.629 167.4220  0.00  0.00     0.000 C
ATOM     80  C2  IDS F   5     -21.111  58.235 167.3970  0.00  0.00     0.000 C
ATOM     81  C3  IDS F   5     -20.934  59.307 168.4740  0.00  0.00     0.000 C
ATOM     82  C4  IDS F   5     -21.435  58.799 169.8430  0.00  0.00     0.000 C
ATOM     83  C5  IDS F   5     -22.843  58.220 169.6960  0.00  0.00     0.000 C
ATOM     84  O5  IDS F   5     -22.861  57.205 168.7140  0.00  0.00     0.000 O
ATOM     85   O  IDS F   5     -23.405  58.578 166.9020  0.00  0.00     0.000 OA
ATOM     86   O  IDS F   5     -20.189  57.215 167.6630  0.00  0.00     0.000 O
ATOM     87   S  IDS F   5     -18.651  57.213 167.3830  0.00  0.00     0.000 S
ATOM     88   O  IDS F   5     -18.194  58.574 167.4930  0.00  0.00     0.000 OA
ATOM     89   O  IDS F   5     -18.061  56.358 168.3880  0.00  0.00     0.000 OA
ATOM     90   O  IDS F   5     -18.520  56.711 166.0410  0.00  0.00     0.000 OA
ATOM     91   O  IDS F   5     -21.694  60.438 168.0980  0.00  0.00     0.000 O
ATOM     93  HD  IDS F   5     -22.383  60.354 168.6170  0.00  0.00     0.000 HD
ATOM     93   O  IDS F   5     -23.696  56.558 171.1640  0.00  0.00     0.000 OA
ATOM     94   O  IDS F   5     -23.688  58.493 171.9080  0.00  0.00     0.000 OA
ATOM     95   C  IDS F   5     -23.447  57.725 170.9970  0.00  0.00     0.000 C
ENDBRANCH 78 82
ENDBRANCH 58 78
ENDBRANCH 57 61
ENDBRANCH 41 57
ENDBRANCH 40 44
ENDBRANCH 20 40
ENDBRANCH 19 23
ENDBRANCH 1 19
TORSDOF 8
ENDMDL
MODEL 46
REMARK VINA RESULT:      -5.9      4.067      6.288
FFDIST PL LJ 2322 74 36 -1
ROOT
ATOM      1  C1  IDS F   1      -7.638  48.848 172.3610  0.00  0.00     0.000 C
ATOM      2  C2  IDS F   1      -7.519  49.884 171.2310  0.00  0.00     0.000 C
ATOM      3  C3  IDS F   1      -7.241  51.318 171.7450  0.00  0.00     0.000 C
ATOM      4  C4  IDS F   1      -6.283  51.375 172.9580  0.00  0.00     0.000 C
ATOM      5  C5  IDS F   1      -6.562  50.209 173.9130  0.00  0.00     0.000 C
ATOM      6  O5  IDS F   1      -6.541  49.005 173.2210  0.00  0.00     0.000 O
ATOM      7   S  IDS F   1      -6.193  50.041 168.8820  0.00  0.00     0.000 S
ATOM      8   O  IDS F   1      -6.278  51.468 168.9550  0.00  0.00     0.000 OA
ATOM      9   O  IDS F   1      -4.877  49.620 168.4980  0.00  0.00     0.000 OA
ATOM     10   O  IDS F   1      -7.238  49.447 168.0820  0.00  0.00     0.000 OA
ATOM     11   O  IDS F   1      -6.455  49.540 170.3670  0.00  0.00     0.000 O
ATOM     12   O  IDS F   1      -8.478  51.919 172.1200  0.00  0.00     0.000 O
ATOM     14  HD  IDS F   1      -8.621  52.493 172.7520  0.00  0.00     0.000 HD
ATOM     14   O  IDS F   1      -4.971  51.277 172.4620  0.00  0.00     0.000 O
ATOM     16  HD  IDS F   1      -5.114  51.850 173.0950  0.00  0.00     0.000 HD
ATOM     16   O  IDS F   1      -5.264  49.010 175.5080  0.00  0.00     0.000 OA
ATOM     17   O  IDS F   1      -5.335  51.084 175.7750  0.00  0.00     0.000 OA
ATOM     18   C  IDS F   1      -5.667  50.102 175.1310  0.00  0.00     0.000 C
ENDROOT
BRANCH 1 19
ATOM     19  O4  SGN F   2      -7.577  47.576 171.8140  0.00  0.00     0.000 O
BRANCH 19 23
ATOM     20  C1  SGN F   2     -10.636  44.987 172.9690  0.00  0.00     0.000 C
ATOM     21  C2  SGN F   2      -9.653  45.367 174.0650  0.00  0.00     0.000 C
ATOM     22  C3  SGN F   2      -8.942  46.686 173.7310  0.00  0.00     0.000 C
ATOM     23  C4  SGN F   2      -8.249  46.456 172.3490  0.00  0.00     0.000 C
ATOM     24  C5  SGN F   2      -9.335  46.118 171.3830  0.00  0.00     0.000 C
ATOM     25  O5  SGN F   2      -9.955  44.927 171.7460  0.00  0.00     0.000 O
ATOM     26   N  SGN F   2     -10.354  45.333 175.3710  0.00  0.00     0.000 N
ATOM     28  HD  SGN F   2     -10.391  45.850 176.0650  0.00  0.00     0.000 HD
ATOM     28   S  SGN F   2     -10.521  43.845 176.1230  0.00  0.00     0.000 S
ATOM     29   O  SGN F   2     -11.047  42.920 175.1450  0.00  0.00     0.000 OA
ATOM     30   O  SGN F   2      -9.184  43.497 176.5490  0.00  0.00     0.000 OA
ATOM     31   O  SGN F   2     -11.382  44.041 177.2320  0.00  0.00     0.000 OA
ATOM     32   O  SGN F   2      -7.973  46.941 174.7410  0.00  0.00     0.000 O
ATOM     34  HD  SGN F   2      -8.009  47.458 175.4350  0.00  0.00     0.000 HD
ATOM     34   C  SGN F   2      -8.825  45.924 169.9950  0.00  0.00     0.000 C
ATOM     35   O  SGN F   2      -7.838  44.955 170.1030  0.00  0.00     0.000 O
ATOM     36   S  SGN F   2      -7.113  44.249 168.9620  0.00  0.00     0.000 S
ATOM     37   O  SGN F   2      -5.713  44.473 169.2190  0.00  0.00     0.000 OA
ATOM     38   O  SGN F   2      -7.531  42.868 169.0720  0.00  0.00     0.000 OA
ATOM     39   O  SGN F   2      -7.565  44.868 167.7210  0.00  0.00     0.000 OA
BRANCH 20 40
ATOM     40  O4  IDS F   3     -11.699  45.898 172.8900  0.00  0.00     0.000 O
BRANCH 40 44
ATOM     41  C1  IDS F   3     -14.593  47.719 173.6000  0.00  0.00     0.000 C
ATOM     42  C2  IDS F   3     -13.724  47.215 174.7250  0.00  0.00     0.000 C
ATOM     43  C3  IDS F   3     -13.376  45.683 174.5860  0.00  0.00     0.000 C
ATOM     44  C4  IDS F   3     -12.970  45.325 173.1690  0.00  0.00     0.000 C
ATOM     45  C5  IDS F   3     -14.014  45.872 172.1960  0.00  0.00     0.000 C
ATOM     46  O5  IDS F   3     -14.106  47.273 172.3250  0.00  0.00     0.000 O
ATOM     47   O  IDS F   3     -11.369  47.937 176.8240  0.00  0.00     0.000 OA
ATOM     48   O  IDS F   3     -11.101  49.814 175.4080  0.00  0.00     0.000 OA
ATOM     49   O  IDS F   3     -13.196  49.375 176.5120  0.00  0.00     0.000 OA
ATOM     50   O  IDS F   3     -12.527  47.999 174.7620  0.00  0.00     0.000 O
ATOM     51   S  IDS F   3     -12.015  48.840 175.9410  0.00  0.00     0.000 S
ATOM     52   O  IDS F   3     -14.525  44.903 174.9000  0.00  0.00     0.000 O
ATOM     54  HD  IDS F   3     -14.259  45.681 175.1710  0.00  0.00     0.000 HD
ATOM     54   C  IDS F   3     -13.807  45.479 170.7290  0.00  0.00     0.000 C
ATOM     55   O  IDS F   3     -13.271  46.247 169.9340  0.00  0.00     0.000 OA
ATOM     56   O  IDS F   3     -14.164  44.372 170.3060  0.00  0.00     0.000 OA
BRANCH 41 57
ATOM     57  O4  SGN F   4     -15.911  47.315 173.8350  0.00  0.00     0.000 O
BRANCH 57 61
ATOM     58  C1  SGN F   4     -19.565  49.093 173.3500  0.00  0.00     0.000 C
ATOM     59  C2  SGN F   4     -19.133  48.116 172.2450  0.00  0.00     0.000 C
ATOM     60  C3  SGN F   4     -17.988  47.230 172.7040  0.00  0.00     0.000 C
ATOM     61  C4  SGN F   4     -16.869  48.123 173.2340  0.00  0.00     0.000 C
ATOM     62  C5  SGN F   4     -17.424  49.099 174.2890  0.00  0.00     0.000 C
ATOM     63  O5  SGN F   4     -18.468  49.860 173.7620  0.00  0.00     0.000 O
ATOM     64   N  SGN F   4     -20.261  47.330 171.7840  0.00  0.00     0.000 N
ATOM     66  HD  SGN F   4     -19.971  48.125 171.9690  0.00  0.00     0.000 HD
ATOM     66   S  SGN F   4     -21.192  47.965 170.6060  0.00  0.00     0.000 S
ATOM     67   O  SGN F   4     -21.883  49.092 171.2040  0.00  0.00     0.000 OA
ATOM     68   O  SGN F   4     -20.321  48.378 169.5080  0.00  0.00     0.000 OA
ATOM     69   O  SGN F   4     -22.087  46.881 170.2710  0.00  0.00     0.000 OA
ATOM     70   O  SGN F   4     -17.478  46.495 171.6000  0.00  0.00     0.000 O
ATOM     72  HD  SGN F   4     -17.188  47.290 171.7840  0.00  0.00     0.000 HD
ATOM     72   C  SGN F   4     -16.426  50.112 174.7860  0.00  0.00     0.000 C
ATOM     73   O  SGN F   4     -15.993  50.857 173.6710  0.00  0.00     0.000 O
ATOM     74   S  SGN F   4     -15.530  52.342 173.7040  0.00  0.00     0.000 S
ATOM     75   O  SGN F   4     -14.882  52.585 174.9510  0.00  0.00     0.000 OA
ATOM     76   O  SGN F   4     -14.625  52.536 172.5730  0.00  0.00     0.000 OA
ATOM     77   O  SGN F   4     -16.737  53.069 173.6290  0.00  0.00     0.000 OA
BRANCH 58 78
ATOM     78  O4  IDS F   5     -20.144  48.401 174.4300  0.00  0.00     0.000 O
BRANCH 78 82
ATOM     79  C1  IDS F   5     -21.912  47.376 177.2530  0.00  0.00     0.000 C
ATOM     80  C2  IDS F   5     -22.195  46.771 175.8860  0.00  0.00     0.000 C
ATOM     81  C3  IDS F   5     -22.447  47.846 174.8260  0.00  0.00     0.000 C
ATOM     82  C4  IDS F   5     -21.356  48.936 174.8790  0.00  0.00     0.000 C
ATOM     83  C5  IDS F   5     -21.190  49.433 176.3160  0.00  0.00     0.000 C
ATOM     84  O5  IDS F   5     -20.907  48.356 177.1840  0.00  0.00     0.000 O
ATOM     85   O  IDS F   5     -23.120  47.878 177.7680  0.00  0.00     0.000 OA
ATOM     86   O  IDS F   5     -21.066  46.045 175.4890  0.00  0.00     0.000 O
ATOM     87   S  IDS F   5     -20.971  44.946 174.3800  0.00  0.00     0.000 S
ATOM     88   O  IDS F   5     -21.948  45.267 173.3740  0.00  0.00     0.000 OA
ATOM     89   O  IDS F   5     -19.621  45.008 173.8680  0.00  0.00     0.000 OA
ATOM     90   O  IDS F   5     -21.282  43.713 175.0540  0.00  0.00     0.000 OA
ATOM     91   O  IDS F   5     -23.702  48.440 175.0920  0.00  0.00     0.000 O
ATOM     93  HD  IDS F   5     -23.458  49.184 175.4610  0.00  0.00     0.000 HD
ATOM     93   O  IDS F   5     -19.158  50.370 177.1150  0.00  0.00     0.000 OA
ATOM     94   O  IDS F   5     -20.326  51.625 175.9500  0.00  0.00     0.000 OA
ATOM     95   C  IDS F   5     -20.164  50.539 176.4730  0.00  0.00     0.000 C
ENDBRANCH 78 82
ENDBRANCH 58 78
ENDBRANCH 57 61
ENDBRANCH 41 57
ENDBRANCH 40 44
ENDBRANCH 20 40
ENDBRANCH 19 23
ENDBRANCH 1 19
TORSDOF 8
ENDMDL
MODEL 47
REMARK VINA RESULT:      -5.9      1.860      3.096
FFDIST PL LJ 2322 74 36 -1
ROOT
ATOM      1  C1  IDS F   1     -10.607  46.465 174.3690  0.00  0.00     0.000 C
ATOM      2  C2  IDS F   1     -10.715  44.971 174.7150  0.00  0.00     0.000 C
ATOM      3  C3  IDS F   1      -9.397  44.194 174.4790  0.00  0.00     0.000 C
ATOM      4  C4  IDS F   1      -8.125  44.989 174.8520  0.00  0.00     0.000 C
ATOM      5  C5  IDS F   1      -8.282  46.462 174.4560  0.00  0.00     0.000 C
ATOM      6  O5  IDS F   1      -9.457  46.980 174.9850  0.00  0.00     0.000 O
ATOM      7   S  IDS F   1     -11.658  43.531 176.7980  0.00  0.00     0.000 S
ATOM      8   O  IDS F   1     -10.801  42.451 176.4100  0.00  0.00     0.000 OA
ATOM      9   O  IDS F   1     -11.605  43.751 178.2140  0.00  0.00     0.000 OA
ATOM     10   O  IDS F   1     -13.005  43.400 176.2910  0.00  0.00     0.000 OA
ATOM     11   O  IDS F   1     -11.053  44.811 176.0780  0.00  0.00     0.000 O
ATOM     12   O  IDS F   1      -9.317  43.834 173.1020  0.00  0.00     0.000 O
ATOM     14  HD  IDS F   1      -8.607  43.761 172.6120  0.00  0.00     0.000 HD
ATOM     14   O  IDS F   1      -7.959  44.889 176.2440  0.00  0.00     0.000 O
ATOM     16  HD  IDS F   1      -7.248  44.816 175.7540  0.00  0.00     0.000 HD
ATOM     16   O  IDS F   1      -7.345  48.508 175.2330  0.00  0.00     0.000 OA
ATOM     17   O  IDS F   1      -5.966  47.044 174.6540  0.00  0.00     0.000 OA
ATOM     18   C  IDS F   1      -7.129  47.383 174.8030  0.00  0.00     0.000 C
ENDROOT
BRANCH 1 19
ATOM     19  O4  SGN F   2     -11.708  47.129 174.8910  0.00  0.00     0.000 O
BRANCH 19 23
ATOM     20  C1  SGN F   2     -15.814  47.314 174.1870  0.00  0.00     0.000 C
ATOM     21  C2  SGN F   2     -15.394  46.473 175.3820  0.00  0.00     0.000 C
ATOM     22  C3  SGN F   2     -14.006  46.893 175.8870  0.00  0.00     0.000 C
ATOM     23  C4  SGN F   2     -13.044  46.734 174.6660  0.00  0.00     0.000 C
ATOM     24  C5  SGN F   2     -13.571  47.631 173.5950  0.00  0.00     0.000 C
ATOM     25  O5  SGN F   2     -14.835  47.214 173.1900  0.00  0.00     0.000 O
ATOM     26   N  SGN F   2     -16.477  46.501 176.3940  0.00  0.00     0.000 N
ATOM     28  HD  SGN F   2     -16.515  46.606 177.2530  0.00  0.00     0.000 HD
ATOM     28   S  SGN F   2     -17.762  45.446 176.1840  0.00  0.00     0.000 S
ATOM     29   O  SGN F   2     -18.222  45.587 174.8210  0.00  0.00     0.000 OA
ATOM     30   O  SGN F   2     -17.209  44.137 176.4470  0.00  0.00     0.000 OA
ATOM     31   O  SGN F   2     -18.741  45.797 177.1470  0.00  0.00     0.000 OA
ATOM     32   O  SGN F   2     -13.628  46.014 176.9400  0.00  0.00     0.000 O
ATOM     34  HD  SGN F   2     -13.666  46.119 177.7990  0.00  0.00     0.000 HD
ATOM     34   C  SGN F   2     -12.714  47.625 172.3730  0.00  0.00     0.000 C
ATOM     35   O  SGN F   2     -12.616  46.292 172.0030  0.00  0.00     0.000 O
ATOM     36   S  SGN F   2     -12.006  45.736 170.7210  0.00  0.00     0.000 S
ATOM     37   O  SGN F   2     -11.013  44.791 171.1650  0.00  0.00     0.000 OA
ATOM     38   O  SGN F   2     -13.125  45.147 170.0180  0.00  0.00     0.000 OA
ATOM     39   O  SGN F   2     -11.429  46.863 169.9980  0.00  0.00     0.000 OA
BRANCH 20 40
ATOM     40  O4  IDS F   3     -16.011  48.656 174.5440  0.00  0.00     0.000 O
BRANCH 40 44
ATOM     41  C1  IDS F   3     -17.069  51.981 174.6750  0.00  0.00     0.000 C
ATOM     42  C2  IDS F   3     -17.030  51.152 175.9340  0.00  0.00     0.000 C
ATOM     43  C3  IDS F   3     -17.749  49.759 175.7680  0.00  0.00     0.000 C
ATOM     44  C4  IDS F   3     -17.366  49.080 174.4660  0.00  0.00     0.000 C
ATOM     45  C5  IDS F   3     -17.537  50.071 173.3160  0.00  0.00     0.000 C
ATOM     46  O5  IDS F   3     -16.716  51.198 173.5240  0.00  0.00     0.000 O
ATOM     47   O  IDS F   3     -15.341  50.379 178.5850  0.00  0.00     0.000 OA
ATOM     48   O  IDS F   3     -13.596  51.472 177.4190  0.00  0.00     0.000 OA
ATOM     49   O  IDS F   3     -15.646  52.618 177.9530  0.00  0.00     0.000 OA
ATOM     50   O  IDS F   3     -15.663  50.967 176.3160  0.00  0.00     0.000 O
ATOM     51   S  IDS F   3     -15.014  51.388 177.6430  0.00  0.00     0.000 S
ATOM     52   O  IDS F   3     -19.160  49.950 175.7380  0.00  0.00     0.000 O
ATOM     54  HD  IDS F   3     -18.521  50.391 176.1220  0.00  0.00     0.000 HD
ATOM     54   C  IDS F   3     -17.310  49.490 171.9160  0.00  0.00     0.000 C
ATOM     55   O  IDS F   3     -16.238  49.638 171.3330  0.00  0.00     0.000 OA
ATOM     56   O  IDS F   3     -18.194  48.845 171.3370  0.00  0.00     0.000 OA
BRANCH 41 57
ATOM     57  O4  SGN F   4     -18.336  52.559 174.5570  0.00  0.00     0.000 O
BRANCH 57 61
ATOM     58  C1  SGN F   4     -19.881  56.083 173.1650  0.00  0.00     0.000 C
ATOM     59  C2  SGN F   4     -19.558  55.018 172.1050  0.00  0.00     0.000 C
ATOM     60  C3  SGN F   4     -19.382  53.646 172.7330  0.00  0.00     0.000 C
ATOM     61  C4  SGN F   4     -18.352  53.758 173.8550  0.00  0.00     0.000 C
ATOM     62  C5  SGN F   4     -18.743  54.891 174.8230  0.00  0.00     0.000 C
ATOM     63  O5  SGN F   4     -18.878  56.101 174.1420  0.00  0.00     0.000 O
ATOM     64   N  SGN F   4     -20.572  55.001 171.0690  0.00  0.00     0.000 N
ATOM     66  HD  SGN F   4     -20.040  55.496 171.5410  0.00  0.00     0.000 HD
ATOM     66   S  SGN F   4     -20.392  56.035 169.8210  0.00  0.00     0.000 S
ATOM     67   O  SGN F   4     -20.597  57.363 170.3670  0.00  0.00     0.000 OA
ATOM     68   O  SGN F   4     -19.045  55.868 169.2790  0.00  0.00     0.000 OA
ATOM     69   O  SGN F   4     -21.444  55.642 168.9110  0.00  0.00     0.000 OA
ATOM     70   O  SGN F   4     -18.879  52.737 171.7640  0.00  0.00     0.000 O
ATOM     72  HD  SGN F   4     -18.347  53.232 172.2360  0.00  0.00     0.000 HD
ATOM     72   C  SGN F   4     -17.725  55.169 175.8980  0.00  0.00     0.000 C
ATOM     73   O  SGN F   4     -16.522  55.524 175.2560  0.00  0.00     0.000 O
ATOM     74   S  SGN F   4     -15.444  56.488 175.8310  0.00  0.00     0.000 S
ATOM     75   O  SGN F   4     -15.415  56.339 177.2480  0.00  0.00     0.000 OA
ATOM     76   O  SGN F   4     -14.168  56.121 175.2190  0.00  0.00     0.000 OA
ATOM     77   O  SGN F   4     -15.922  57.768 175.4820  0.00  0.00     0.000 OA
BRANCH 58 78
ATOM     78  O4  IDS F   5     -21.148  55.855 173.7330  0.00  0.00     0.000 O
BRANCH 78 82
ATOM     79  C1  IDS F   5     -24.278  55.994 175.2600  0.00  0.00     0.000 C
ATOM     80  C2  IDS F   5     -24.146  55.879 173.7480  0.00  0.00     0.000 C
ATOM     81  C3  IDS F   5     -23.213  56.948 173.1730  0.00  0.00     0.000 C
ATOM     82  C4  IDS F   5     -21.894  57.013 173.9730  0.00  0.00     0.000 C
ATOM     83  C5  IDS F   5     -22.200  57.121 175.4680  0.00  0.00     0.000 C
ATOM     84  O5  IDS F   5     -23.021  56.049 175.8840  0.00  0.00     0.000 O
ATOM     85   O  IDS F   5     -25.072  57.119 175.5450  0.00  0.00     0.000 OA
ATOM     86   O  IDS F   5     -23.587  54.630 173.4540  0.00  0.00     0.000 O
ATOM     87   S  IDS F   5     -23.594  53.872 172.0860  0.00  0.00     0.000 S
ATOM     88   O  IDS F   5     -23.596  54.867 171.0460  0.00  0.00     0.000 OA
ATOM     89   O  IDS F   5     -22.394  53.067 172.0670  0.00  0.00     0.000 OA
ATOM     90   O  IDS F   5     -24.811  53.104 172.0950  0.00  0.00     0.000 OA
ATOM     91   O  IDS F   5     -23.867  58.198 173.2640  0.00  0.00     0.000 O
ATOM     93  HD  IDS F   5     -23.468  58.543 173.9510  0.00  0.00     0.000 HD
ATOM     93   O  IDS F   5     -20.686  56.366 177.1360  0.00  0.00     0.000 OA
ATOM     94   O  IDS F   5     -20.226  58.192 176.2680  0.00  0.00     0.000 OA
ATOM     95   C  IDS F   5     -20.967  57.231 176.3450  0.00  0.00     0.000 C
ENDBRANCH 78 82
ENDBRANCH 58 78
ENDBRANCH 57 61
ENDBRANCH 41 57
ENDBRANCH 40 44
ENDBRANCH 20 40
ENDBRANCH 19 23
ENDBRANCH 1 19
TORSDOF 8
ENDMDL
MODEL 48
REMARK VINA RESULT:      -5.9      5.259      7.435
FFDIST PL LJ 2322 74 36 -1
ROOT
ATOM      1  C1  IDS F   1      -8.518  50.013 171.8530  0.00  0.00     0.000 C
ATOM      2  C2  IDS F   1      -7.200  49.274 172.1410  0.00  0.00     0.000 C
ATOM      3  C3  IDS F   1      -5.945  50.119 171.8160  0.00  0.00     0.000 C
ATOM      4  C4  IDS F   1      -6.089  51.619 172.1660  0.00  0.00     0.000 C
ATOM      5  C5  IDS F   1      -7.504  52.108 171.8390  0.00  0.00     0.000 C
ATOM      6  O5  IDS F   1      -8.449  51.285 172.4390  0.00  0.00     0.000 O
ATOM      7   S  IDS F   1      -6.195  47.844 174.2010  0.00  0.00     0.000 S
ATOM      8   O  IDS F   1      -4.875  48.139 173.7330  0.00  0.00     0.000 OA
ATOM      9   O  IDS F   1      -6.291  48.017 175.6220  0.00  0.00     0.000 OA
ATOM     10   O  IDS F   1      -6.689  46.564 173.7480  0.00  0.00     0.000 OA
ATOM     11   O  IDS F   1      -7.127  48.929 173.5100  0.00  0.00     0.000 O
ATOM     12   O  IDS F   1      -5.663  50.006 170.4240  0.00  0.00     0.000 O
ATOM     14  HD  IDS F   1      -5.318  50.604 169.9010  0.00  0.00     0.000 HD
ATOM     14   O  IDS F   1      -5.849  51.754 173.5450  0.00  0.00     0.000 O
ATOM     16  HD  IDS F   1      -5.503  52.351 173.0220  0.00  0.00     0.000 HD
ATOM     16   O  IDS F   1      -8.897  53.856 172.6580  0.00  0.00     0.000 OA
ATOM     17   O  IDS F   1      -7.016  54.450 171.9610  0.00  0.00     0.000 OA
ATOM     18   C  IDS F   1      -7.815  53.553 172.1730  0.00  0.00     0.000 C
ENDROOT
BRANCH 1 19
ATOM     19  O4  SGN F   2      -9.562  49.321 172.4490  0.00  0.00     0.000 O
BRANCH 19 23
ATOM     20  C1  SGN F   2     -11.318  45.545 172.2200  0.00  0.00     0.000 C
ATOM     21  C2  SGN F   2     -10.349  45.746 173.3750  0.00  0.00     0.000 C
ATOM     22  C3  SGN F   2     -10.194  47.237 173.7080  0.00  0.00     0.000 C
ATOM     23  C4  SGN F   2      -9.713  47.919 172.3870  0.00  0.00     0.000 C
ATOM     24  C5  SGN F   2     -10.770  47.656 171.3670  0.00  0.00     0.000 C
ATOM     25  O5  SGN F   2     -10.878  46.291 171.1190  0.00  0.00     0.000 O
ATOM     26   N  SGN F   2     -10.762  44.879 174.5040  0.00  0.00     0.000 N
ATOM     28  HD  SGN F   2     -10.851  44.981 175.3590  0.00  0.00     0.000 HD
ATOM     28   S  SGN F   2     -10.284  43.273 174.4650  0.00  0.00     0.000 S
ATOM     29   O  SGN F   2     -10.625  42.750 173.1610  0.00  0.00     0.000 OA
ATOM     30   O  SGN F   2      -8.856  43.310 174.6870  0.00  0.00     0.000 OA
ATOM     31   O  SGN F   2     -10.956  42.619 175.5270  0.00  0.00     0.000 OA
ATOM     32   O  SGN F   2      -9.211  47.368 174.7270  0.00  0.00     0.000 O
ATOM     34  HD  SGN F   2      -9.300  47.471 175.5830  0.00  0.00     0.000 HD
ATOM     34   C  SGN F   2     -10.470  48.301 170.0550  0.00  0.00     0.000 C
ATOM     35   O  SGN F   2      -9.211  47.839 169.7020  0.00  0.00     0.000 O
ATOM     36   S  SGN F   2      -8.498  48.040 168.3690  0.00  0.00     0.000 S
ATOM     37   O  SGN F   2      -7.234  48.640 168.7140  0.00  0.00     0.000 OA
ATOM     38   O  SGN F   2      -8.398  46.709 167.8120  0.00  0.00     0.000 OA
ATOM     39   O  SGN F   2      -9.337  48.918 167.5630  0.00  0.00     0.000 OA
BRANCH 20 40
ATOM     40  O4  IDS F   3     -12.624  45.918 172.5710  0.00  0.00     0.000 O
BRANCH 40 44
ATOM     41  C1  IDS F   3     -16.056  46.065 173.1940  0.00  0.00     0.000 C
ATOM     42  C2  IDS F   3     -15.262  44.858 173.6270  0.00  0.00     0.000 C
ATOM     43  C3  IDS F   3     -14.363  44.275 172.4710  0.00  0.00     0.000 C
ATOM     44  C4  IDS F   3     -13.626  45.371 171.7240  0.00  0.00     0.000 C
ATOM     45  C5  IDS F   3     -14.621  46.459 171.3240  0.00  0.00     0.000 C
ATOM     46  O5  IDS F   3     -15.237  46.997 172.4730  0.00  0.00     0.000 O
ATOM     47   O  IDS F   3     -13.713  43.401 176.0670  0.00  0.00     0.000 OA
ATOM     48   O  IDS F   3     -13.917  45.536 177.0670  0.00  0.00     0.000 OA
ATOM     49   O  IDS F   3     -15.860  44.300 176.3610  0.00  0.00     0.000 OA
ATOM     50   O  IDS F   3     -14.456  45.222 174.7530  0.00  0.00     0.000 O
ATOM     51   S  IDS F   3     -14.488  44.586 176.1500  0.00  0.00     0.000 S
ATOM     52   O  IDS F   3     -15.183  43.603 171.5210  0.00  0.00     0.000 O
ATOM     54  HD  IDS F   3     -15.268  43.734 172.3720  0.00  0.00     0.000 HD
ATOM     54   C  IDS F   3     -14.047  47.578 170.4470  0.00  0.00     0.000 C
ATOM     55   O  IDS F   3     -13.703  48.653 170.9320  0.00  0.00     0.000 OA
ATOM     56   O  IDS F   3     -13.901  47.426 169.2270  0.00  0.00     0.000 OA
BRANCH 41 57
ATOM     57  O4  SGN F   4     -17.156  45.634 172.4470  0.00  0.00     0.000 O
BRANCH 57 61
ATOM     58  C1  SGN F   4     -20.995  47.028 172.7080  0.00  0.00     0.000 C
ATOM     59  C2  SGN F   4     -20.372  47.014 171.3030  0.00  0.00     0.000 C
ATOM     60  C3  SGN F   4     -19.139  46.129 171.2520  0.00  0.00     0.000 C
ATOM     61  C4  SGN F   4     -18.186  46.563 172.3640  0.00  0.00     0.000 C
ATOM     62  C5  SGN F   4     -18.929  46.600 173.7140  0.00  0.00     0.000 C
ATOM     63  O5  SGN F   4     -20.040  47.439 173.6470  0.00  0.00     0.000 O
ATOM     64   N  SGN F   4     -21.352  46.616 170.3110  0.00  0.00     0.000 N
ATOM     66  HD  SGN F   4     -21.188  47.132 170.9870  0.00  0.00     0.000 HD
ATOM     66   S  SGN F   4     -22.301  47.782 169.6790  0.00  0.00     0.000 S
ATOM     67   O  SGN F   4     -23.175  48.214 170.7540  0.00  0.00     0.000 OA
ATOM     68   O  SGN F   4     -21.441  48.864 169.2040  0.00  0.00     0.000 OA
ATOM     69   O  SGN F   4     -23.015  47.094 168.6270  0.00  0.00     0.000 OA
ATOM     70   O  SGN F   4     -18.474  46.306 170.0090  0.00  0.00     0.000 O
ATOM     72  HD  SGN F   4     -18.309  46.821 170.6850  0.00  0.00     0.000 HD
ATOM     72   C  SGN F   4     -18.111  47.138 174.8580  0.00  0.00     0.000 C
ATOM     73   O  SGN F   4     -17.731  48.453 174.5210  0.00  0.00     0.000 O
ATOM     74   S  SGN F   4     -17.485  49.608 175.5350  0.00  0.00     0.000 S
ATOM     75   O  SGN F   4     -16.944  49.051 176.7300  0.00  0.00     0.000 OA
ATOM     76   O  SGN F   4     -16.559  50.546 174.9020  0.00  0.00     0.000 OA
ATOM     77   O  SGN F   4     -18.777  50.121 175.7740  0.00  0.00     0.000 OA
BRANCH 58 78
ATOM     78  O4  IDS F   5     -21.526  45.766 173.0320  0.00  0.00     0.000 O
BRANCH 78 82
ATOM     79  C1  IDS F   5     -23.301  43.034 174.2700  0.00  0.00     0.000 C
ATOM     80  C2  IDS F   5     -23.427  43.458 172.8140  0.00  0.00     0.000 C
ATOM     81  C3  IDS F   5     -23.756  44.947 172.6800  0.00  0.00     0.000 C
ATOM     82  C4  IDS F   5     -22.819  45.799 173.5620  0.00  0.00     0.000 C
ATOM     83  C5  IDS F   5     -22.800  45.240 174.9860  0.00  0.00     0.000 C
ATOM     84  O5  IDS F   5     -22.429  43.877 174.9780  0.00  0.00     0.000 O
ATOM     85   O  IDS F   5     -24.590  42.999 174.8290  0.00  0.00     0.000 OA
ATOM     86   O  IDS F   5     -22.193  43.242 172.1890  0.00  0.00     0.000 O
ATOM     87   S  IDS F   5     -21.895  43.150 170.6560  0.00  0.00     0.000 S
ATOM     88   O  IDS F   5     -22.849  43.992 169.9840  0.00  0.00     0.000 OA
ATOM     89   O  IDS F   5     -20.538  43.615 170.4820  0.00  0.00     0.000 OA
ATOM     90   O  IDS F   5     -22.081  41.761 170.3270  0.00  0.00     0.000 OA
ATOM     91   O  IDS F   5     -25.090  45.143 173.1050  0.00  0.00     0.000 O
ATOM     93  HD  IDS F   5     -24.965  45.474 173.8950  0.00  0.00     0.000 HD
ATOM     93   O  IDS F   5     -20.953  45.544 176.4490  0.00  0.00     0.000 OA
ATOM     94   O  IDS F   5     -22.207  47.181 176.2370  0.00  0.00     0.000 OA
ATOM     95   C  IDS F   5     -21.935  46.031 175.9500  0.00  0.00     0.000 C
ENDBRANCH 78 82
ENDBRANCH 58 78
ENDBRANCH 57 61
ENDBRANCH 41 57
ENDBRANCH 40 44
ENDBRANCH 20 40
ENDBRANCH 19 23
ENDBRANCH 1 19
TORSDOF 8
ENDMDL
MODEL 49
REMARK VINA RESULT:      -5.8      4.106     12.050
FFDIST PL LJ 2322 74 36 -1
ROOT
ATOM      1  C1  IDS F   1     -21.213  46.535 175.5870  0.00  0.00     0.000 C
ATOM      2  C2  IDS F   1     -20.457  45.789 176.7000  0.00  0.00     0.000 C
ATOM      3  C3  IDS F   1     -21.387  44.952 177.6120  0.00  0.00     0.000 C
ATOM      4  C4  IDS F   1     -22.547  44.259 176.8590  0.00  0.00     0.000 C
ATOM      5  C5  IDS F   1     -23.098  45.180 175.7660  0.00  0.00     0.000 C
ATOM      6  O5  IDS F   1     -22.067  45.625 174.9470  0.00  0.00     0.000 O
ATOM      7   S  IDS F   1     -18.257  44.227 176.8310  0.00  0.00     0.000 S
ATOM      8   O  IDS F   1     -18.769  43.647 178.0360  0.00  0.00     0.000 OA
ATOM      9   O  IDS F   1     -17.747  43.219 175.9480  0.00  0.00     0.000 OA
ATOM     10   O  IDS F   1     -17.324  45.304 177.0670  0.00  0.00     0.000 OA
ATOM     11   O  IDS F   1     -19.517  44.898 176.1340  0.00  0.00     0.000 O
ATOM     12   O  IDS F   1     -21.942  45.805 178.6090  0.00  0.00     0.000 O
ATOM     14  HD  IDS F   1     -22.723  45.752 178.9800  0.00  0.00     0.000 HD
ATOM     14   O  IDS F   1     -22.030  43.088 176.2760  0.00  0.00     0.000 O
ATOM     16  HD  IDS F   1     -22.810  43.035 176.6470  0.00  0.00     0.000 HD
ATOM     16   O  IDS F   1     -24.229  44.829 173.7010  0.00  0.00     0.000 OA
ATOM     17   O  IDS F   1     -25.125  43.963 175.3810  0.00  0.00     0.000 OA
ATOM     18   C  IDS F   1     -24.213  44.620 174.9060  0.00  0.00     0.000 C
ENDROOT
BRANCH 1 19
ATOM     19  O4  SGN F   2     -20.299  46.997 174.6530  0.00  0.00     0.000 O
BRANCH 19 23
ATOM     20  C1  SGN F   2     -17.696  50.227 174.2230  0.00  0.00     0.000 C
ATOM     21  C2  SGN F   2     -18.432  50.154 175.5510  0.00  0.00     0.000 C
ATOM     22  C3  SGN F   2     -18.902  48.721 175.8390  0.00  0.00     0.000 C
ATOM     23  C4  SGN F   2     -19.800  48.317 174.6260  0.00  0.00     0.000 C
ATOM     24  C5  SGN F   2     -18.938  48.415 173.4120  0.00  0.00     0.000 C
ATOM     25  O5  SGN F   2     -18.528  49.730 173.2120  0.00  0.00     0.000 O
ATOM     26   N  SGN F   2     -17.588  50.772 176.6020  0.00  0.00     0.000 N
ATOM     28  HD  SGN F   2     -17.359  50.563 177.4110  0.00  0.00     0.000 HD
ATOM     28   S  SGN F   2     -17.626  52.441 176.7450  0.00  0.00     0.000 S
ATOM     29   O  SGN F   2     -17.428  52.995 175.4250  0.00  0.00     0.000 OA
ATOM     30   O  SGN F   2     -18.939  52.734 177.2750  0.00  0.00     0.000 OA
ATOM     31   O  SGN F   2     -16.606  52.797 177.6640  0.00  0.00     0.000 OA
ATOM     32   O  SGN F   2     -19.660  48.732 177.0430  0.00  0.00     0.000 O
ATOM     34  HD  SGN F   2     -19.431  48.523 177.8520  0.00  0.00     0.000 HD
ATOM     34   C  SGN F   2     -19.654  48.002 172.1690  0.00  0.00     0.000 C
ATOM     35   O  SGN F   2     -20.792  48.793 172.1250  0.00  0.00     0.000 O
ATOM     36   S  SGN F   2     -21.785  48.912 170.9730  0.00  0.00     0.000 S
ATOM     37   O  SGN F   2     -23.067  48.609 171.5590  0.00  0.00     0.000 OA
ATOM     38   O  SGN F   2     -21.641  50.277 170.5160  0.00  0.00     0.000 OA
ATOM     39   O  SGN F   2     -21.384  47.943 169.9620  0.00  0.00     0.000 OA
BRANCH 20 40
ATOM     40  O4  IDS F   3     -16.491  49.510 174.2590  0.00  0.00     0.000 O
BRANCH 40 44
ATOM     41  C1  IDS F   3     -13.161  48.469 174.3810  0.00  0.00     0.000 C
ATOM     42  C2  IDS F   3     -13.662  49.507 175.3530  0.00  0.00     0.000 C
ATOM     43  C3  IDS F   3     -14.438  50.681 174.6430  0.00  0.00     0.000 C
ATOM     44  C4  IDS F   3     -15.413  50.163 173.6020  0.00  0.00     0.000 C
ATOM     45  C5  IDS F   3     -14.688  49.178 172.6850  0.00  0.00     0.000 C
ATOM     46  O5  IDS F   3     -14.180  48.101 173.4390  0.00  0.00     0.000 O
ATOM     47   O  IDS F   3     -14.801  50.064 178.3310  0.00  0.00     0.000 OA
ATOM     48   O  IDS F   3     -15.046  47.711 178.3460  0.00  0.00     0.000 OA
ATOM     49   O  IDS F   3     -12.896  48.738 177.9920  0.00  0.00     0.000 OA
ATOM     50   O  IDS F   3     -14.503  48.862 176.3160  0.00  0.00     0.000 O
ATOM     51   S  IDS F   3     -14.301  48.832 177.8380  0.00  0.00     0.000 S
ATOM     52   O  IDS F   3     -13.512  51.523 173.9630  0.00  0.00     0.000 O
ATOM     54  HD  IDS F   3     -13.439  51.031 174.6720  0.00  0.00     0.000 HD
ATOM     54   C  IDS F   3     -15.513  48.665 171.5000  0.00  0.00     0.000 C
ATOM     55   O  IDS F   3     -16.072  47.571 171.5410  0.00  0.00     0.000 OA
ATOM     56   O  IDS F   3     -15.649  49.341 170.4710  0.00  0.00     0.000 OA
BRANCH 41 57
ATOM     57  O4  SGN F   4     -12.010  48.958 173.7560  0.00  0.00     0.000 O
BRANCH 57 61
ATOM     58  C1  SGN F   4     -10.529  45.187 173.1770  0.00  0.00     0.000 C
ATOM     59  C2  SGN F   4      -9.992  45.947 174.4000  0.00  0.00     0.000 C
ATOM     60  C3  SGN F   4     -10.874  47.133 174.7480  0.00  0.00     0.000 C
ATOM     61  C4  SGN F   4     -11.049  47.989 173.4950  0.00  0.00     0.000 C
ATOM     62  C5  SGN F   4     -11.531  47.117 172.3200  0.00  0.00     0.000 C
ATOM     63  O5  SGN F   4     -10.649  46.062 172.0890  0.00  0.00     0.000 O
ATOM     64   N  SGN F   4      -9.834  45.054 175.5310  0.00  0.00     0.000 N
ATOM     66  HD  SGN F   4      -9.677  45.175 174.6880  0.00  0.00     0.000 HD
ATOM     66   S  SGN F   4      -8.430  44.233 175.6530  0.00  0.00     0.000 S
ATOM     67   O  SGN F   4      -8.427  43.278 174.5610  0.00  0.00     0.000 OA
ATOM     68   O  SGN F   4      -7.330  45.190 175.5470  0.00  0.00     0.000 OA
ATOM     69   O  SGN F   4      -8.531  43.596 176.9470  0.00  0.00     0.000 OA
ATOM     70   O  SGN F   4     -10.239  47.929 175.7390  0.00  0.00     0.000 O
ATOM     72  HD  SGN F   4     -10.082  48.050 174.8960  0.00  0.00     0.000 HD
ATOM     72   C  SGN F   4     -11.614  47.842 171.0010  0.00  0.00     0.000 C
ATOM     73   O  SGN F   4     -10.322  48.319 170.7030  0.00  0.00     0.000 O
ATOM     74   S  SGN F   4      -9.744  48.519 169.2720  0.00  0.00     0.000 S
ATOM     75   O  SGN F   4     -10.807  48.908 168.4060  0.00  0.00     0.000 OA
ATOM     76   O  SGN F   4      -8.711  49.550 169.3650  0.00  0.00     0.000 OA
ATOM     77   O  SGN F   4      -9.271  47.237 168.9220  0.00  0.00     0.000 OA
BRANCH 58 78
ATOM     78  O4  IDS F   5     -11.755  44.564 173.4750  0.00  0.00     0.000 O
BRANCH 78 82
ATOM     79  C1  IDS F   5     -14.604  42.560 173.6020  0.00  0.00     0.000 C
ATOM     80  C2  IDS F   5     -13.624  42.608 174.7660  0.00  0.00     0.000 C
ATOM     81  C3  IDS F   5     -12.185  42.354 174.3120  0.00  0.00     0.000 C
ATOM     82  C4  IDS F   5     -11.834  43.223 173.0860  0.00  0.00     0.000 C
ATOM     83  C5  IDS F   5     -12.915  43.067 172.0140  0.00  0.00     0.000 C
ATOM     84  O5  IDS F   5     -14.186  43.383 172.5430  0.00  0.00     0.000 O
ATOM     85   O  IDS F   5     -14.756  41.218 173.2140  0.00  0.00     0.000 OA
ATOM     86   O  IDS F   5     -13.669  43.893 175.3210  0.00  0.00     0.000 O
ATOM     87   S  IDS F   5     -13.165  44.349 176.7290  0.00  0.00     0.000 S
ATOM     88   O  IDS F   5     -12.052  43.508 177.0780  0.00  0.00     0.000 OA
ATOM     89   O  IDS F   5     -12.778  45.735 176.5870  0.00  0.00     0.000 OA
ATOM     90   O  IDS F   5     -14.287  44.146 177.6070  0.00  0.00     0.000 OA
ATOM     91   O  IDS F   5     -12.070  40.990 173.9560  0.00  0.00     0.000 O
ATOM     93  HD  IDS F   5     -12.093  41.043 173.0910  0.00  0.00     0.000 HD
ATOM     93   O  IDS F   5     -13.368  44.756 170.4060  0.00  0.00     0.000 OA
ATOM     94   O  IDS F   5     -11.689  43.598 170.0400  0.00  0.00     0.000 OA
ATOM     95   C  IDS F   5     -12.646  43.854 170.7450  0.00  0.00     0.000 C
ENDBRANCH 78 82
ENDBRANCH 58 78
ENDBRANCH 57 61
ENDBRANCH 41 57
ENDBRANCH 40 44
ENDBRANCH 20 40
ENDBRANCH 19 23
ENDBRANCH 1 19
TORSDOF 8
ENDMDL
MODEL 50
REMARK VINA RESULT:      -5.7      3.455     10.847
FFDIST PL LJ 2322 74 36 -1
ROOT
ATOM      1  C1  IDS F   1     -17.229  55.290 172.4590  0.00  0.00     0.000 C
ATOM      2  C2  IDS F   1     -16.439  54.649 173.6130  0.00  0.00     0.000 C
ATOM      3  C3  IDS F   1     -14.941  54.439 173.2830  0.00  0.00     0.000 C
ATOM      4  C4  IDS F   1     -14.315  55.583 172.4520  0.00  0.00     0.000 C
ATOM      5  C5  IDS F   1     -15.314  56.090 171.4050  0.00  0.00     0.000 C
ATOM      6  O5  IDS F   1     -16.521  56.415 172.0110  0.00  0.00     0.000 O
ATOM      7   S  IDS F   1     -16.204  55.079 176.2700  0.00  0.00     0.000 S
ATOM      8   O  IDS F   1     -14.927  54.434 176.2380  0.00  0.00     0.000 OA
ATOM      9   O  IDS F   1     -16.156  56.287 177.0420  0.00  0.00     0.000 OA
ATOM     10   O  IDS F   1     -17.280  54.197 176.6590  0.00  0.00     0.000 OA
ATOM     11   O  IDS F   1     -16.500  55.473 174.7600  0.00  0.00     0.000 O
ATOM     12   O  IDS F   1     -14.799  53.222 172.5550  0.00  0.00     0.000 O
ATOM     14  HD  IDS F   1     -14.221  53.037 171.9370  0.00  0.00     0.000 HD
ATOM     14   O  IDS F   1     -13.994  56.623 173.3420  0.00  0.00     0.000 O
ATOM     16  HD  IDS F   1     -13.416  56.437 172.7240  0.00  0.00     0.000 HD
ATOM     16   O  IDS F   1     -15.634  58.155 170.2660  0.00  0.00     0.000 OA
ATOM     17   O  IDS F   1     -13.729  57.309 170.0860  0.00  0.00     0.000 OA
ATOM     18   C  IDS F   1     -14.860  57.249 170.5410  0.00  0.00     0.000 C
ENDROOT
BRANCH 1 19
ATOM     19  O4  SGN F   2     -18.458  55.718 172.9380  0.00  0.00     0.000 O
BRANCH 19 23
ATOM     20  C1  SGN F   2     -21.583  53.154 171.9130  0.00  0.00     0.000 C
ATOM     21  C2  SGN F   2     -21.081  54.051 170.7930  0.00  0.00     0.000 C
ATOM     22  C3  SGN F   2     -19.646  54.523 171.0700  0.00  0.00     0.000 C
ATOM     23  C4  SGN F   2     -19.698  55.250 172.4520  0.00  0.00     0.000 C
ATOM     24  C5  SGN F   2     -20.182  54.242 173.4410  0.00  0.00     0.000 C
ATOM     25  O5  SGN F   2     -21.477  53.839 173.1300  0.00  0.00     0.000 O
ATOM     26   N  SGN F   2     -21.287  53.362 169.4970  0.00  0.00     0.000 N
ATOM     28  HD  SGN F   2     -20.812  53.233 168.7840  0.00  0.00     0.000 HD
ATOM     28   S  SGN F   2     -22.810  53.455 168.8030  0.00  0.00     0.000 S
ATOM     29   O  SGN F   2     -23.774  53.103 169.8210  0.00  0.00     0.000 OA
ATOM     30   O  SGN F   2     -22.936  54.831 168.3770  0.00  0.00     0.000 OA
ATOM     31   O  SGN F   2     -22.811  52.569 167.6960  0.00  0.00     0.000 OA
ATOM     32   O  SGN F   2     -19.266  55.428 170.0410  0.00  0.00     0.000 O
ATOM     34  HD  SGN F   2     -18.790  55.299 169.3280  0.00  0.00     0.000 HD
ATOM     34   C  SGN F   2     -20.230  54.784 174.8310  0.00  0.00     0.000 C
ATOM     35   O  SGN F   2     -21.015  55.925 174.7490  0.00  0.00     0.000 O
ATOM     36   S  SGN F   2     -21.539  56.765 175.9090  0.00  0.00     0.000 S
ATOM     37   O  SGN F   2     -21.085  58.104 175.6280  0.00  0.00     0.000 OA
ATOM     38   O  SGN F   2     -22.975  56.595 175.8550  0.00  0.00     0.000 OA
ATOM     39   O  SGN F   2     -20.961  56.217 177.1290  0.00  0.00     0.000 OA
BRANCH 20 40
ATOM     40  O4  IDS F   3     -20.870  51.948 171.9680  0.00  0.00     0.000 O
BRANCH 40 44
ATOM     41  C1  IDS F   3     -20.418  48.487 172.0760  0.00  0.00     0.000 C
ATOM     42  C2  IDS F   3     -21.738  49.062 171.6250  0.00  0.00     0.000 C
ATOM     43  C3  IDS F   3     -22.303  50.144 172.6220  0.00  0.00     0.000 C
ATOM     44  C4  IDS F   3     -21.227  51.117 173.0650  0.00  0.00     0.000 C
ATOM     45  C5  IDS F   3     -20.006  50.330 173.5420  0.00  0.00     0.000 C
ATOM     46  O5  IDS F   3     -19.516  49.521 172.4970  0.00  0.00     0.000 O
ATOM     47   O  IDS F   3     -23.571  49.903 169.0930  0.00  0.00     0.000 OA
ATOM     48   O  IDS F   3     -21.528  49.660 167.9230  0.00  0.00     0.000 OA
ATOM     49   O  IDS F   3     -22.481  47.826 169.1620  0.00  0.00     0.000 OA
ATOM     50   O  IDS F   3     -21.567  49.625 170.3200  0.00  0.00     0.000 O
ATOM     51   S  IDS F   3     -22.323  49.230 169.0420  0.00  0.00     0.000 S
ATOM     52   O  IDS F   3     -22.793  49.503 173.7950  0.00  0.00     0.000 O
ATOM     54  HD  IDS F   3     -22.733  49.242 172.9710  0.00  0.00     0.000 HD
ATOM     54   C  IDS F   3     -18.879  51.176 174.1430  0.00  0.00     0.000 C
ATOM     55   O  IDS F   3     -17.896  51.491 173.4770  0.00  0.00     0.000 OA
ATOM     56   O  IDS F   3     -18.931  51.577 175.3130  0.00  0.00     0.000 OA
BRANCH 41 57
ATOM     57  O4  SGN F   4     -20.659  47.549 173.0840  0.00  0.00     0.000 O
BRANCH 57 61
ATOM     58  C1  SGN F   4     -16.851  46.201 173.7410  0.00  0.00     0.000 C
ATOM     59  C2  SGN F   4     -17.453  45.890 172.3620  0.00  0.00     0.000 C
ATOM     60  C3  SGN F   4     -18.669  46.755 172.0780  0.00  0.00     0.000 C
ATOM     61  C4  SGN F   4     -19.645  46.612 173.2440  0.00  0.00     0.000 C
ATOM     62  C5  SGN F   4     -18.924  46.887 174.5770  0.00  0.00     0.000 C
ATOM     63  O5  SGN F   4     -17.827  46.040 174.7330  0.00  0.00     0.000 O
ATOM     64   N  SGN F   4     -16.452  46.025 171.3220  0.00  0.00     0.000 N
ATOM     66  HD  SGN F   4     -16.636  45.688 172.0980  0.00  0.00     0.000 HD
ATOM     66   S  SGN F   4     -15.516  44.729 171.0030  0.00  0.00     0.000 S
ATOM     67   O  SGN F   4     -14.665  44.552 172.1650  0.00  0.00     0.000 OA
ATOM     68   O  SGN F   4     -16.389  43.577 170.7830  0.00  0.00     0.000 OA
ATOM     69   O  SGN F   4     -14.774  45.136 169.8310  0.00  0.00     0.000 OA
ATOM     70   O  SGN F   4     -19.319  46.297 170.9010  0.00  0.00     0.000 O
ATOM     72  HD  SGN F   4     -19.503  45.960 171.6770  0.00  0.00     0.000 HD
ATOM     72   C  SGN F   4     -19.768  46.649 175.8020  0.00  0.00     0.000 C
ATOM     73   O  SGN F   4     -20.167  45.298 175.7800  0.00  0.00     0.000 O
ATOM     74   S  SGN F   4     -20.449  44.421 177.0340  0.00  0.00     0.000 S
ATOM     75   O  SGN F   4     -20.997  45.254 178.0530  0.00  0.00     0.000 OA
ATOM     76   O  SGN F   4     -21.383  43.373 176.6260  0.00  0.00     0.000 OA
ATOM     77   O  SGN F   4     -19.171  43.960 177.4130  0.00  0.00     0.000 OA
BRANCH 58 78
ATOM     78  O4  IDS F   5     -16.302  47.496 173.7650  0.00  0.00     0.000 O
BRANCH 78 82
ATOM     79  C1  IDS F   5     -14.572  50.453 174.4090  0.00  0.00     0.000 C
ATOM     80  C2  IDS F   5     -14.231  49.590 173.2030  0.00  0.00     0.000 C
ATOM     81  C3  IDS F   5     -13.991  48.130 173.5940  0.00  0.00     0.000 C
ATOM     82  C4  IDS F   5     -15.122  47.613 174.5080  0.00  0.00     0.000 C
ATOM     83  C5  IDS F   5     -15.343  48.592 175.6630  0.00  0.00     0.000 C
ATOM     84  O5  IDS F   5     -15.609  49.888 175.1690  0.00  0.00     0.000 O
ATOM     85   O  IDS F   5     -13.396  50.642 175.1570  0.00  0.00     0.000 OA
ATOM     86   O  IDS F   5     -15.322  49.616 172.3260  0.00  0.00     0.000 O
ATOM     87   S  IDS F   5     -15.348  49.227 170.8120  0.00  0.00     0.000 S
ATOM     88   O  IDS F   5     -14.357  48.201 170.6170  0.00  0.00     0.000 OA
ATOM     89   O  IDS F   5     -16.686  48.750 170.5430  0.00  0.00     0.000 OA
ATOM     90   O  IDS F   5     -15.011  50.438 170.1120  0.00  0.00     0.000 OA
ATOM     91   O  IDS F   5     -12.766  48.058 174.2960  0.00  0.00     0.000 O
ATOM     93  HD  IDS F   5     -13.047  47.994 175.1130  0.00  0.00     0.000 HD
ATOM     93   O  IDS F   5     -17.428  48.791 176.7840  0.00  0.00     0.000 OA
ATOM     94   O  IDS F   5     -16.277  47.151 177.3170  0.00  0.00     0.000 OA
ATOM     95   C  IDS F   5     -16.413  48.157 176.6460  0.00  0.00     0.000 C
ENDBRANCH 78 82
ENDBRANCH 58 78
ENDBRANCH 57 61
ENDBRANCH 41 57
ENDBRANCH 40 44
ENDBRANCH 20 40
ENDBRANCH 19 23
ENDBRANCH 1 19
TORSDOF 8
ENDMDL
MODEL 51
REMARK VINA RESULT:      -5.7      4.093      8.526
FFDIST PL LJ 2322 74 36 -1
ROOT
ATOM      1  C1  IDS F   1     -18.785  43.372 173.5440  0.00  0.00     0.000 C
ATOM      2  C2  IDS F   1     -19.641  43.665 174.7870  0.00  0.00     0.000 C
ATOM      3  C3  IDS F   1     -21.149  43.809 174.4680  0.00  0.00     0.000 C
ATOM      4  C4  IDS F   1     -21.659  42.829 173.3860  0.00  0.00     0.000 C
ATOM      5  C5  IDS F   1     -20.608  42.661 172.2830  0.00  0.00     0.000 C
ATOM      6  O5  IDS F   1     -19.380  42.317 172.8360  0.00  0.00     0.000 O
ATOM      7   S  IDS F   1     -19.858  42.632 177.2750  0.00  0.00     0.000 S
ATOM      8   O  IDS F   1     -21.190  43.151 177.3490  0.00  0.00     0.000 OA
ATOM      9   O  IDS F   1     -19.800  41.283 177.7570  0.00  0.00     0.000 OA
ATOM     10   O  IDS F   1     -18.873  43.497 177.8810  0.00  0.00     0.000 OA
ATOM     11   O  IDS F   1     -19.513  42.614 175.7240  0.00  0.00     0.000 O
ATOM     12   O  IDS F   1     -21.399  45.141 174.0250  0.00  0.00     0.000 O
ATOM     14  HD  IDS F   1     -21.986  45.407 173.4470  0.00  0.00     0.000 HD
ATOM     14   O  IDS F   1     -21.888  41.592 174.0140  0.00  0.00     0.000 O
ATOM     16  HD  IDS F   1     -22.476  41.859 173.4360  0.00  0.00     0.000 HD
ATOM     16   O  IDS F   1     -20.086  40.939 170.7240  0.00  0.00     0.000 OA
ATOM     17   O  IDS F   1     -22.060  41.631 170.6800  0.00  0.00     0.000 OA
ATOM     18   C  IDS F   1     -20.944  41.689 171.1700  0.00  0.00     0.000 C
ENDROOT
BRANCH 1 19
ATOM     19  O4  SGN F   2     -17.526  42.959 173.9520  0.00  0.00     0.000 O
BRANCH 19 23
ATOM     20  C1  SGN F   2     -14.729  45.976 173.2630  0.00  0.00     0.000 C
ATOM     21  C2  SGN F   2     -14.989  45.045 172.0890  0.00  0.00     0.000 C
ATOM     22  C3  SGN F   2     -16.358  44.363 172.2210  0.00  0.00     0.000 C
ATOM     23  C4  SGN F   2     -16.328  43.615 173.5920  0.00  0.00     0.000 C
ATOM     24  C5  SGN F   2     -16.091  44.655 174.6360  0.00  0.00     0.000 C
ATOM     25  O5  SGN F   2     -14.846  45.250 174.4550  0.00  0.00     0.000 O
ATOM     26   N  SGN F   2     -14.766  45.791 170.8270  0.00  0.00     0.000 N
ATOM     28  HD  SGN F   2     -15.187  45.868 170.0740  0.00  0.00     0.000 HD
ATOM     28   S  SGN F   2     -13.189  45.938 170.2800  0.00  0.00     0.000 S
ATOM     29   O  SGN F   2     -12.386  46.399 171.3900  0.00  0.00     0.000 OA
ATOM     30   O  SGN F   2     -12.824  44.607 169.8510  0.00  0.00     0.000 OA
ATOM     31   O  SGN F   2     -13.216  46.844 169.1900  0.00  0.00     0.000 OA
ATOM     32   O  SGN F   2     -16.505  43.440 171.1490  0.00  0.00     0.000 O
ATOM     34  HD  SGN F   2     -16.926  43.518 170.3960  0.00  0.00     0.000 HD
ATOM     34   C  SGN F   2     -16.092  44.089 176.0170  0.00  0.00     0.000 C
ATOM     35   O  SGN F   2     -15.144  43.077 175.9960  0.00  0.00     0.000 O
ATOM     36   S  SGN F   2     -14.612  42.290 177.1890  0.00  0.00     0.000 S
ATOM     37   O  SGN F   2     -14.837  40.908 176.8490  0.00  0.00     0.000 OA
ATOM     38   O  SGN F   2     -13.219  42.669 177.2750  0.00  0.00     0.000 OA
ATOM     39   O  SGN F   2     -15.375  42.716 178.3560  0.00  0.00     0.000 OA
BRANCH 20 40
ATOM     40  O4  IDS F   3     -15.614  47.063 173.2650  0.00  0.00     0.000 O
BRANCH 40 44
ATOM     41  C1  IDS F   3     -17.295  50.116 173.0520  0.00  0.00     0.000 C
ATOM     42  C2  IDS F   3     -17.233  49.205 171.8520  0.00  0.00     0.000 C
ATOM     43  C3  IDS F   3     -15.769  48.713 171.5370  0.00  0.00     0.000 C
ATOM     44  C4  IDS F   3     -15.039  48.274 172.7930  0.00  0.00     0.000 C
ATOM     45  C5  IDS F   3     -15.173  49.365 173.8550  0.00  0.00     0.000 C
ATOM     46  O5  IDS F   3     -16.534  49.588 174.1480  0.00  0.00     0.000 O
ATOM     47   O  IDS F   3     -18.762  46.928 170.1320  0.00  0.00     0.000 OA
ATOM     48   O  IDS F   3     -20.142  46.839 172.0520  0.00  0.00     0.000 OA
ATOM     49   O  IDS F   3     -19.869  48.884 170.8080  0.00  0.00     0.000 OA
ATOM     50   O  IDS F   3     -18.096  48.086 172.0850  0.00  0.00     0.000 O
ATOM     51   S  IDS F   3     -19.295  47.657 171.2260  0.00  0.00     0.000 S
ATOM     52   O  IDS F   3     -15.018  49.783 170.9720  0.00  0.00     0.000 O
ATOM     54  HD  IDS F   3     -15.862  49.592 170.9540  0.00  0.00     0.000 HD
ATOM     54   C  IDS F   3     -14.377  49.122 175.1420  0.00  0.00     0.000 C
ATOM     55   O  IDS F   3     -14.916  48.660 176.1450  0.00  0.00     0.000 OA
ATOM     56   O  IDS F   3     -13.166  49.372 175.2050  0.00  0.00     0.000 OA
BRANCH 41 57
ATOM     57  O4  SGN F   4     -16.864  51.390 172.6700  0.00  0.00     0.000 O
BRANCH 57 61
ATOM     58  C1  SGN F   4     -17.618  55.180 174.0180  0.00  0.00     0.000 C
ATOM     59  C2  SGN F   4     -16.311  54.535 174.5020  0.00  0.00     0.000 C
ATOM     60  C3  SGN F   4     -15.935  53.334 173.6520  0.00  0.00     0.000 C
ATOM     61  C4  SGN F   4     -17.131  52.385 173.6030  0.00  0.00     0.000 C
ATOM     62  C5  SGN F   4     -18.396  53.147 173.1640  0.00  0.00     0.000 C
ATOM     63  O5  SGN F   4     -18.644  54.227 174.0120  0.00  0.00     0.000 O
ATOM     64   N  SGN F   4     -15.240  55.512 174.5420  0.00  0.00     0.000 N
ATOM     66  HD  SGN F   4     -16.060  55.340 174.7620  0.00  0.00     0.000 HD
ATOM     66   S  SGN F   4     -15.086  56.407 175.8960  0.00  0.00     0.000 S
ATOM     67   O  SGN F   4     -16.242  57.283 175.9310  0.00  0.00     0.000 OA
ATOM     68   O  SGN F   4     -15.050  55.501 177.0420  0.00  0.00     0.000 OA
ATOM     69   O  SGN F   4     -13.852  57.128 175.6770  0.00  0.00     0.000 OA
ATOM     70   O  SGN F   4     -14.849  52.642 174.2520  0.00  0.00     0.000 O
ATOM     72  HD  SGN F   4     -15.669  52.470 174.4720  0.00  0.00     0.000 HD
ATOM     72   C  SGN F   4     -19.661  52.330 173.2050  0.00  0.00     0.000 C
ATOM     73   O  SGN F   4     -19.838  51.897 174.5340  0.00  0.00     0.000 O
ATOM     74   S  SGN F   4     -21.209  51.627 175.2180  0.00  0.00     0.000 S
ATOM     75   O  SGN F   4     -22.112  51.126 174.2360  0.00  0.00     0.000 OA
ATOM     76   O  SGN F   4     -20.974  50.657 176.2870  0.00  0.00     0.000 OA
ATOM     77   O  SGN F   4     -21.620  52.903 175.6560  0.00  0.00     0.000 OA
BRANCH 58 78
ATOM     78  O4  IDS F   5     -17.448  55.761 172.7470  0.00  0.00     0.000 O
BRANCH 78 82
ATOM     79  C1  IDS F   5     -17.512  57.683 169.8400  0.00  0.00     0.000 C
ATOM     80  C2  IDS F   5     -16.330  57.745 170.7970  0.00  0.00     0.000 C
ATOM     81  C3  IDS F   5     -16.774  58.010 172.2370  0.00  0.00     0.000 C
ATOM     82  C4  IDS F   5     -17.930  57.069 172.6380  0.00  0.00     0.000 C
ATOM     83  C5  IDS F   5     -19.030  57.118 171.5750  0.00  0.00     0.000 C
ATOM     84  O5  IDS F   5     -18.503  56.802 170.3030  0.00  0.00     0.000 O
ATOM     85   O  IDS F   5     -17.995  58.990 169.6580  0.00  0.00     0.000 OA
ATOM     86   O  IDS F   5     -15.688  56.501 170.7770  0.00  0.00     0.000 O
ATOM     87   S  IDS F   5     -14.243  56.157 171.2650  0.00  0.00     0.000 S
ATOM     88   O  IDS F   5     -13.932  57.054 172.3470  0.00  0.00     0.000 OA
ATOM     89   O  IDS F   5     -14.281  54.778 171.6950  0.00  0.00     0.000 OA
ATOM     90   O  IDS F   5     -13.402  56.387 170.1200  0.00  0.00     0.000 OA
ATOM     91   O  IDS F   5     -17.222  59.348 172.3200  0.00  0.00     0.000 O
ATOM     93  HD  IDS F   5     -18.081  59.236 172.3170  0.00  0.00     0.000 HD
ATOM     93   O  IDS F   5     -20.524  55.310 171.2030  0.00  0.00     0.000 OA
ATOM     94   O  IDS F   5     -20.940  56.490 172.8560  0.00  0.00     0.000 OA
ATOM     95   C  IDS F   5     -20.236  56.255 171.8920  0.00  0.00     0.000 C
ENDBRANCH 78 82
ENDBRANCH 58 78
ENDBRANCH 57 61
ENDBRANCH 41 57
ENDBRANCH 40 44
ENDBRANCH 20 40
ENDBRANCH 19 23
ENDBRANCH 1 19
TORSDOF 8
ENDMDL
MODEL 52
REMARK VINA RESULT:      -5.7      3.488     11.855
FFDIST PL LJ 2322 74 36 -1
ROOT
ATOM      1  C1  IDS F   1     -17.908  58.262 169.1820  0.00  0.00     0.000 C
ATOM      2  C2  IDS F   1     -19.263  58.153 168.4620  0.00  0.00     0.000 C
ATOM      3  C3  IDS F   1     -19.449  59.215 167.3510  0.00  0.00     0.000 C
ATOM      4  C4  IDS F   1     -18.163  59.517 166.5480  0.00  0.00     0.000 C
ATOM      5  C5  IDS F   1     -16.943  59.518 167.4760  0.00  0.00     0.000 C
ATOM      6  O5  IDS F   1     -16.898  58.340 168.2130  0.00  0.00     0.000 O
ATOM      7   S  IDS F   1     -20.709  56.159 167.3520  0.00  0.00     0.000 S
ATOM      8   O  IDS F   1     -21.376  57.128 166.5360  0.00  0.00     0.000 OA
ATOM      9   O  IDS F   1     -20.322  55.012 166.5820  0.00  0.00     0.000 OA
ATOM     10   O  IDS F   1     -21.440  55.821 168.5500  0.00  0.00     0.000 OA
ATOM     11   O  IDS F   1     -19.386  56.885 167.8490  0.00  0.00     0.000 O
ATOM     12   O  IDS F   1     -19.902  60.428 167.9480  0.00  0.00     0.000 O
ATOM     14  HD  IDS F   1     -19.733  61.240 167.6980  0.00  0.00     0.000 HD
ATOM     14   O  IDS F   1     -18.022  58.503 165.5840  0.00  0.00     0.000 O
ATOM     16  HD  IDS F   1     -17.853  59.314 165.3330  0.00  0.00     0.000 HD
ATOM     16   O  IDS F   1     -14.617  59.107 167.1770  0.00  0.00     0.000 OA
ATOM     17   O  IDS F   1     -15.440  60.587 165.9480  0.00  0.00     0.000 OA
ATOM     18   C  IDS F   1     -15.595  59.752 166.8240  0.00  0.00     0.000 C
ENDROOT
BRANCH 1 19
ATOM     19  O4  SGN F   2     -17.701  57.111 169.9270  0.00  0.00     0.000 O
BRANCH 19 23
ATOM     20  C1  SGN F   2     -17.198  55.736 173.8320  0.00  0.00     0.000 C
ATOM     21  C2  SGN F   2     -18.449  56.565 173.5880  0.00  0.00     0.000 C
ATOM     22  C3  SGN F   2     -18.834  56.550 172.1020  0.00  0.00     0.000 C
ATOM     23  C4  SGN F   2     -17.587  57.095 171.3340  0.00  0.00     0.000 C
ATOM     24  C5  SGN F   2     -16.459  56.171 171.6530  0.00  0.00     0.000 C
ATOM     25  O5  SGN F   2     -16.166  56.213 173.0120  0.00  0.00     0.000 O
ATOM     26   N  SGN F   2     -19.508  56.123 174.5270  0.00  0.00     0.000 N
ATOM     28  HD  SGN F   2     -20.352  55.941 174.4620  0.00  0.00     0.000 HD
ATOM     28   S  SGN F   2     -19.475  56.747 176.0820  0.00  0.00     0.000 S
ATOM     29   O  SGN F   2     -18.130  56.584 176.5870  0.00  0.00     0.000 OA
ATOM     30   O  SGN F   2     -19.842  58.137 175.9270  0.00  0.00     0.000 OA
ATOM     31   O  SGN F   2     -20.447  56.036 176.8290  0.00  0.00     0.000 OA
ATOM     32   O  SGN F   2     -19.951  57.412 171.9200  0.00  0.00     0.000 O
ATOM     34  HD  SGN F   2     -20.796  57.230 171.8560  0.00  0.00     0.000 HD
ATOM     34   C  SGN F   2     -15.202  56.539 170.9380  0.00  0.00     0.000 C
ATOM     35   O  SGN F   2     -14.966  57.864 171.2750  0.00  0.00     0.000 O
ATOM     36   S  SGN F   2     -13.717  58.683 170.9660  0.00  0.00     0.000 S
ATOM     37   O  SGN F   2     -14.204  59.847 170.2690  0.00  0.00     0.000 OA
ATOM     38   O  SGN F   2     -13.138  58.957 172.2630  0.00  0.00     0.000 OA
ATOM     39   O  SGN F   2     -12.854  57.850 170.1380  0.00  0.00     0.000 OA
BRANCH 20 40
ATOM     40  O4  IDS F   3     -17.424  54.374 173.5880  0.00  0.00     0.000 O
BRANCH 40 44
ATOM     41  C1  IDS F   3     -17.656  50.890 173.5800  0.00  0.00     0.000 C
ATOM     42  C2  IDS F   3     -18.416  51.694 174.6050  0.00  0.00     0.000 C
ATOM     43  C3  IDS F   3     -17.510  52.750 175.3450  0.00  0.00     0.000 C
ATOM     44  C4  IDS F   3     -16.621  53.506 174.3760  0.00  0.00     0.000 C
ATOM     45  C5  IDS F   3     -15.896  52.505 173.4770  0.00  0.00     0.000 C
ATOM     46  O5  IDS F   3     -16.835  51.734 172.7600  0.00  0.00     0.000 O
ATOM     47   O  IDS F   3     -21.256  53.032 175.3930  0.00  0.00     0.000 OA
ATOM     48   O  IDS F   3     -21.744  52.600 173.1190  0.00  0.00     0.000 OA
ATOM     49   O  IDS F   3     -21.133  50.820 174.6230  0.00  0.00     0.000 OA
ATOM     50   O  IDS F   3     -19.511  52.346 173.9520  0.00  0.00     0.000 O
ATOM     51   S  IDS F   3     -21.003  52.189 174.2810  0.00  0.00     0.000 S
ATOM     52   O  IDS F   3     -16.651  52.081 176.2630  0.00  0.00     0.000 O
ATOM     54  HD  IDS F   3     -17.441  51.892 175.9630  0.00  0.00     0.000 HD
ATOM     54   C  IDS F   3     -14.860  53.114 172.5260  0.00  0.00     0.000 C
ATOM     55   O  IDS F   3     -15.133  53.340 171.3490  0.00  0.00     0.000 OA
ATOM     56   O  IDS F   3     -13.723  53.406 172.9180  0.00  0.00     0.000 OA
BRANCH 41 57
ATOM     57  O4  SGN F   4     -16.914  49.907 174.2420  0.00  0.00     0.000 O
BRANCH 57 61
ATOM     58  C1  SGN F   4     -15.778  46.034 173.5650  0.00  0.00     0.000 C
ATOM     59  C2  SGN F   4     -15.362  47.060 172.4990  0.00  0.00     0.000 C
ATOM     60  C3  SGN F   4     -15.469  48.481 173.0240  0.00  0.00     0.000 C
ATOM     61  C4  SGN F   4     -16.875  48.684 173.5850  0.00  0.00     0.000 C
ATOM     62  C5  SGN F   4     -17.209  47.569 174.5950  0.00  0.00     0.000 C
ATOM     63  O5  SGN F   4     -17.078  46.311 174.0080  0.00  0.00     0.000 O
ATOM     64   N  SGN F   4     -14.028  46.776 172.0060  0.00  0.00     0.000 N
ATOM     66  HD  SGN F   4     -14.809  46.448 172.1870  0.00  0.00     0.000 HD
ATOM     66   S  SGN F   4     -13.889  45.715 170.7760  0.00  0.00     0.000 S
ATOM     67   O  SGN F   4     -14.249  44.419 171.3220  0.00  0.00     0.000 OA
ATOM     68   O  SGN F   4     -14.796  46.131 169.7080  0.00  0.00     0.000 OA
ATOM     69   O  SGN F   4     -12.489  45.798 170.4240  0.00  0.00     0.000 OA
ATOM     70   O  SGN F   4     -15.284  49.402 171.9580  0.00  0.00     0.000 O
ATOM     72  HD  SGN F   4     -16.065  49.073 172.1390  0.00  0.00     0.000 HD
ATOM     72   C  SGN F   4     -18.623  47.603 175.1140  0.00  0.00     0.000 C
ATOM     73   O  SGN F   4     -19.481  47.472 174.0040  0.00  0.00     0.000 O
ATOM     74   S  SGN F   4     -20.891  46.814 174.0280  0.00  0.00     0.000 S
ATOM     75   O  SGN F   4     -21.488  47.073 175.2960  0.00  0.00     0.000 OA
ATOM     76   O  SGN F   4     -21.659  47.403 172.9330  0.00  0.00     0.000 OA
ATOM     77   O  SGN F   4     -20.618  45.437 173.8870  0.00  0.00     0.000 OA
BRANCH 58 78
ATOM     78  O4  IDS F   5     -14.861  46.023 174.6320  0.00  0.00     0.000 O
BRANCH 78 82
ATOM     79  C1  IDS F   5     -12.924  45.286 177.4340  0.00  0.00     0.000 C
ATOM     80  C2  IDS F   5     -12.283  45.506 176.0710  0.00  0.00     0.000 C
ATOM     81  C3  IDS F   5     -12.930  44.640 174.9890  0.00  0.00     0.000 C
ATOM     82  C4  IDS F   5     -14.469  44.746 175.0470  0.00  0.00     0.000 C
ATOM     83  C5  IDS F   5     -14.951  44.506 176.4790  0.00  0.00     0.000 C
ATOM     84  O5  IDS F   5     -14.322  45.403 177.3700  0.00  0.00     0.000 O
ATOM     85   O  IDS F   5     -12.509  44.032 177.9150  0.00  0.00     0.000 OA
ATOM     86   O  IDS F   5     -12.476  46.845 175.7100  0.00  0.00     0.000 O
ATOM     87   S  IDS F   5     -11.711  47.668 174.6220  0.00  0.00     0.000 S
ATOM     88   O  IDS F   5     -11.314  46.747 173.5900  0.00  0.00     0.000 OA
ATOM     89   O  IDS F   5     -12.645  48.659 174.1380  0.00  0.00     0.000 OA
ATOM     90   O  IDS F   5     -10.577  48.224 175.3100  0.00  0.00     0.000 OA
ATOM     91   O  IDS F   5     -12.554  43.296 175.2180  0.00  0.00     0.000 O
ATOM     93  HD  IDS F   5     -13.276  42.983 175.5800  0.00  0.00     0.000 HD
ATOM     93   O  IDS F   5     -16.989  45.403 177.3040  0.00  0.00     0.000 OA
ATOM     94   O  IDS F   5     -17.172  43.729 176.0940  0.00  0.00     0.000 OA
ATOM     95   C  IDS F   5     -16.459  44.550 176.6390  0.00  0.00     0.000 C
ENDBRANCH 78 82
ENDBRANCH 58 78
ENDBRANCH 57 61
ENDBRANCH 41 57
ENDBRANCH 40 44
ENDBRANCH 20 40
ENDBRANCH 19 23
ENDBRANCH 1 19
TORSDOF 8
ENDMDL
MODEL 53
REMARK VINA RESULT:      -5.7      4.071     11.175
FFDIST PL LJ 2322 74 36 -1
ROOT
ATOM      1  C1  IDS F   1     -17.031  56.003 173.6420  0.00  0.00     0.000 C
ATOM      2  C2  IDS F   1     -15.907  54.993 173.9250  0.00  0.00     0.000 C
ATOM      3  C3  IDS F   1     -14.491  55.607 173.8000  0.00  0.00     0.000 C
ATOM      4  C4  IDS F   1     -14.387  57.056 174.3290  0.00  0.00     0.000 C
ATOM      5  C5  IDS F   1     -15.650  57.847 173.9690  0.00  0.00     0.000 C
ATOM      6  O5  IDS F   1     -16.783  57.162 174.3900  0.00  0.00     0.000 O
ATOM      7   S  IDS F   1     -15.382  53.170 175.8490  0.00  0.00     0.000 S
ATOM      8   O  IDS F   1     -13.992  53.253 175.5160  0.00  0.00     0.000 OA
ATOM      9   O  IDS F   1     -15.578  53.198 177.2690  0.00  0.00     0.000 OA
ATOM     10   O  IDS F   1     -16.060  52.071 175.2010  0.00  0.00     0.000 OA
ATOM     11   O  IDS F   1     -16.027  54.488 175.2390  0.00  0.00     0.000 O
ATOM     12   O  IDS F   1     -14.107  55.599 172.4280  0.00  0.00     0.000 O
ATOM     14  HD  IDS F   1     -13.609  56.173 172.0120  0.00  0.00     0.000 HD
ATOM     14   O  IDS F   1     -14.256  56.985 175.7270  0.00  0.00     0.000 O
ATOM     16  HD  IDS F   1     -13.759  57.559 175.3110  0.00  0.00     0.000 HD
ATOM     16   O  IDS F   1     -16.764  59.730 174.9070  0.00  0.00     0.000 OA
ATOM     17   O  IDS F   1     -14.749  60.019 174.4250  0.00  0.00     0.000 OA
ATOM     18   C  IDS F   1     -15.717  59.278 174.4640  0.00  0.00     0.000 C
ENDROOT
BRANCH 1 19
ATOM     19  O4  SGN F   2     -18.237  55.466 174.0680  0.00  0.00     0.000 O
BRANCH 19 23
ATOM     20  C1  SGN F   2     -21.576  53.920 172.1050  0.00  0.00     0.000 C
ATOM     21  C2  SGN F   2     -20.576  54.646 171.2200  0.00  0.00     0.000 C
ATOM     22  C3  SGN F   2     -19.188  54.682 171.8750  0.00  0.00     0.000 C
ATOM     23  C4  SGN F   2     -19.390  55.379 173.2590  0.00  0.00     0.000 C
ATOM     24  C5  SGN F   2     -20.370  54.543 174.0130  0.00  0.00     0.000 C
ATOM     25  O5  SGN F   2     -21.601  54.533 173.3650  0.00  0.00     0.000 O
ATOM     26   N  SGN F   2     -20.624  54.059 169.8590  0.00  0.00     0.000 N
ATOM     28  HD  SGN F   2     -20.037  53.806 169.2750  0.00  0.00     0.000 HD
ATOM     28   S  SGN F   2     -21.831  54.593 168.8260  0.00  0.00     0.000 S
ATOM     29   O  SGN F   2     -23.082  54.522 169.5470  0.00  0.00     0.000 OA
ATOM     30   O  SGN F   2     -21.459  55.951 168.4990  0.00  0.00     0.000 OA
ATOM     31   O  SGN F   2     -21.792  53.756 167.6830  0.00  0.00     0.000 OA
ATOM     32   O  SGN F   2     -18.322  55.450 171.0480  0.00  0.00     0.000 O
ATOM     34  HD  SGN F   2     -17.734  55.198 170.4640  0.00  0.00     0.000 HD
ATOM     34   C  SGN F   2     -20.622  55.062 175.3900  0.00  0.00     0.000 C
ATOM     35   O  SGN F   2     -21.014  56.381 175.2150  0.00  0.00     0.000 O
ATOM     36   S  SGN F   2     -21.565  57.325 176.2790  0.00  0.00     0.000 S
ATOM     37   O  SGN F   2     -20.703  58.479 176.2290  0.00  0.00     0.000 OA
ATOM     38   O  SGN F   2     -22.928  57.575 175.8640  0.00  0.00     0.000 OA
ATOM     39   O  SGN F   2     -21.493  56.621 177.5530  0.00  0.00     0.000 OA
BRANCH 20 40
ATOM     40  O4  IDS F   3     -21.261  52.559 172.2320  0.00  0.00     0.000 O
BRANCH 40 44
ATOM     41  C1  IDS F   3     -21.775  49.106 172.2010  0.00  0.00     0.000 C
ATOM     42  C2  IDS F   3     -22.730  50.016 171.4720  0.00  0.00     0.000 C
ATOM     43  C3  IDS F   3     -23.236  51.211 172.3670  0.00  0.00     0.000 C
ATOM     44  C4  IDS F   3     -22.100  51.856 173.1390  0.00  0.00     0.000 C
ATOM     45  C5  IDS F   3     -21.299  50.767 173.8520  0.00  0.00     0.000 C
ATOM     46  O5  IDS F   3     -20.778  49.856 172.9110  0.00  0.00     0.000 O
ATOM     47   O  IDS F   3     -23.542  51.324 168.6240  0.00  0.00     0.000 OA
ATOM     48   O  IDS F   3     -21.400  50.537 167.9980  0.00  0.00     0.000 OA
ATOM     49   O  IDS F   3     -23.091  49.030 168.8180  0.00  0.00     0.000 OA
ATOM     50   O  IDS F   3     -22.079  50.513 170.2960  0.00  0.00     0.000 O
ATOM     51   S  IDS F   3     -22.547  50.338 168.8440  0.00  0.00     0.000 S
ATOM     52   O  IDS F   3     -24.169  50.726 173.3270  0.00  0.00     0.000 O
ATOM     54  HD  IDS F   3     -23.963  50.459 172.5300  0.00  0.00     0.000 HD
ATOM     54   C  IDS F   3     -20.190  51.276 174.7800  0.00  0.00     0.000 C
ATOM     55   O  IDS F   3     -19.019  51.312 174.4100  0.00  0.00     0.000 OA
ATOM     56   O  IDS F   3     -20.443  51.675 175.9240  0.00  0.00     0.000 OA
BRANCH 41 57
ATOM     57  O4  SGN F   4     -22.510  48.267 173.0440  0.00  0.00     0.000 O
BRANCH 57 61
ATOM     58  C1  SGN F   4     -19.438  45.656 173.7460  0.00  0.00     0.000 C
ATOM     59  C2  SGN F   4     -20.221  45.448 172.4400  0.00  0.00     0.000 C
ATOM     60  C3  SGN F   4     -21.046  46.674 172.0850  0.00  0.00     0.000 C
ATOM     61  C4  SGN F   4     -21.909  47.040 173.2910  0.00  0.00     0.000 C
ATOM     62  C5  SGN F   4     -21.032  47.164 174.5530  0.00  0.00     0.000 C
ATOM     63  O5  SGN F   4     -20.321  45.986 174.7820  0.00  0.00     0.000 O
ATOM     64   N  SGN F   4     -19.328  45.080 171.3590  0.00  0.00     0.000 N
ATOM     66  HD  SGN F   4     -19.561  44.924 172.1780  0.00  0.00     0.000 HD
ATOM     66   S  SGN F   4     -18.970  43.499 171.1820  0.00  0.00     0.000 S
ATOM     67   O  SGN F   4     -18.157  43.140 172.3290  0.00  0.00     0.000 OA
ATOM     68   O  SGN F   4     -20.223  42.748 171.1430  0.00  0.00     0.000 OA
ATOM     69   O  SGN F   4     -18.226  43.464 169.9430  0.00  0.00     0.000 OA
ATOM     70   O  SGN F   4     -21.911  46.372 171.0010  0.00  0.00     0.000 O
ATOM     72  HD  SGN F   4     -22.145  46.216 171.8200  0.00  0.00     0.000 HD
ATOM     72   C  SGN F   4     -21.804  47.398 175.8250  0.00  0.00     0.000 C
ATOM     73   O  SGN F   4     -22.678  46.305 175.9940  0.00  0.00     0.000 O
ATOM     74   S  SGN F   4     -23.164  45.743 177.3610  0.00  0.00     0.000 S
ATOM     75   O  SGN F   4     -23.280  46.827 178.2790  0.00  0.00     0.000 OA
ATOM     76   O  SGN F   4     -24.451  45.090 177.1240  0.00  0.00     0.000 OA
ATOM     77   O  SGN F   4     -22.123  44.876 177.7540  0.00  0.00     0.000 OA
BRANCH 58 78
ATOM     78  O4  IDS F   5     -18.446  46.641 173.5820  0.00  0.00     0.000 O
BRANCH 78 82
ATOM     79  C1  IDS F   5     -15.669  48.743 173.7230  0.00  0.00     0.000 C
ATOM     80  C2  IDS F   5     -15.793  47.674 172.6450  0.00  0.00     0.000 C
ATOM     81  C3  IDS F   5     -16.093  46.296 173.2390  0.00  0.00     0.000 C
ATOM     82  C4  IDS F   5     -17.250  46.378 174.2580  0.00  0.00     0.000 C
ATOM     83  C5  IDS F   5     -16.977  47.498 175.2630  0.00  0.00     0.000 C
ATOM     84  O5  IDS F   5     -16.771  48.725 174.5930  0.00  0.00     0.000 O
ATOM     85   O  IDS F   5     -14.449  48.548 174.3930  0.00  0.00     0.000 OA
ATOM     86   O  IDS F   5     -16.865  48.017 171.8130  0.00  0.00     0.000 O
ATOM     87   S  IDS F   5     -17.173  47.487 170.3740  0.00  0.00     0.000 S
ATOM     88   O  IDS F   5     -16.670  46.141 170.2980  0.00  0.00     0.000 OA
ATOM     89   O  IDS F   5     -18.609  47.541 170.2260  0.00  0.00     0.000 OA
ATOM     90   O  IDS F   5     -16.463  48.375 169.4930  0.00  0.00     0.000 OA
ATOM     91   O  IDS F   5     -14.931  45.839 173.9000  0.00  0.00     0.000 O
ATOM     93  HD  IDS F   5     -15.141  45.989 174.7270  0.00  0.00     0.000 HD
ATOM     93   O  IDS F   5     -18.719  48.630 176.4150  0.00  0.00     0.000 OA
ATOM     94   O  IDS F   5     -18.237  46.750 177.1430  0.00  0.00     0.000 OA
ATOM     95   C  IDS F   5     -18.039  47.639 176.3370  0.00  0.00     0.000 C
ENDBRANCH 78 82
ENDBRANCH 58 78
ENDBRANCH 57 61
ENDBRANCH 41 57
ENDBRANCH 40 44
ENDBRANCH 20 40
ENDBRANCH 19 23
ENDBRANCH 1 19
TORSDOF 8
ENDMDL
MODEL 54
REMARK VINA RESULT:      -5.7      4.021     12.829
FFDIST PL LJ 2322 74 36 -1
ROOT
ATOM      1  C1  IDS F   1     -21.008  46.974 175.9030  0.00  0.00     0.000 C
ATOM      2  C2  IDS F   1     -20.646  45.675 175.1630  0.00  0.00     0.000 C
ATOM      3  C3  IDS F   1     -20.707  44.421 176.0690  0.00  0.00     0.000 C
ATOM      4  C4  IDS F   1     -21.870  44.439 177.0880  0.00  0.00     0.000 C
ATOM      5  C5  IDS F   1     -22.069  45.853 177.6450  0.00  0.00     0.000 C
ATOM      6  O5  IDS F   1     -22.204  46.764 176.6050  0.00  0.00     0.000 O
ATOM      7   S  IDS F   1     -21.360  44.516 172.8300  0.00  0.00     0.000 S
ATOM      8   O  IDS F   1     -20.980  43.246 173.3710  0.00  0.00     0.000 OA
ATOM      9   O  IDS F   1     -22.620  44.433 172.1500  0.00  0.00     0.000 OA
ATOM     10   O  IDS F   1     -20.322  45.131 172.0350  0.00  0.00     0.000 OA
ATOM     11   O  IDS F   1     -21.545  45.460 174.0940  0.00  0.00     0.000 O
ATOM     12   O  IDS F   1     -19.480  44.314 176.7870  0.00  0.00     0.000 O
ATOM     14  HD  IDS F   1     -19.356  44.000 177.5840  0.00  0.00     0.000 HD
ATOM     14   O  IDS F   1     -23.031  44.029 176.4090  0.00  0.00     0.000 O
ATOM     16  HD  IDS F   1     -22.907  43.715 177.2060  0.00  0.00     0.000 HD
ATOM     16   O  IDS F   1     -23.916  47.037 178.5690  0.00  0.00     0.000 OA
ATOM     17   O  IDS F   1     -23.450  45.222 179.4980  0.00  0.00     0.000 OA
ATOM     18   C  IDS F   1     -23.210  46.040 178.6250  0.00  0.00     0.000 C
ENDROOT
BRANCH 1 19
ATOM     19  O4  SGN F   2     -21.227  47.977 174.9710  0.00  0.00     0.000 O
BRANCH 19 23
ATOM     20  C1  SGN F   2     -17.805  50.316 174.5090  0.00  0.00     0.000 C
ATOM     21  C2  SGN F   2     -18.719  50.716 175.6570  0.00  0.00     0.000 C
ATOM     22  C3  SGN F   2     -19.601  49.537 176.0910  0.00  0.00     0.000 C
ATOM     23  C4  SGN F   2     -20.388  49.101 174.8140  0.00  0.00     0.000 C
ATOM     24  C5  SGN F   2     -19.364  48.720 173.7970  0.00  0.00     0.000 C
ATOM     25  O5  SGN F   2     -18.584  49.821 173.4560  0.00  0.00     0.000 O
ATOM     26   N  SGN F   2     -17.901  51.331 176.7300  0.00  0.00     0.000 N
ATOM     28  HD  SGN F   2     -17.860  51.258 177.5920  0.00  0.00     0.000 HD
ATOM     28   S  SGN F   2     -17.502  52.950 176.5680  0.00  0.00     0.000 S
ATOM     29   O  SGN F   2     -16.968  53.135 175.2370  0.00  0.00     0.000 OA
ATOM     30   O  SGN F   2     -18.747  53.658 176.7660  0.00  0.00     0.000 OA
ATOM     31   O  SGN F   2     -16.569  53.247 177.5940  0.00  0.00     0.000 OA
ATOM     32   O  SGN F   2     -20.495  49.994 177.0990  0.00  0.00     0.000 O
ATOM     34  HD  SGN F   2     -20.453  49.920 177.9610  0.00  0.00     0.000 HD
ATOM     34   C  SGN F   2     -19.975  48.226 172.5290  0.00  0.00     0.000 C
ATOM     35   O  SGN F   2     -20.834  49.236 172.1210  0.00  0.00     0.000 O
ATOM     36   S  SGN F   2     -21.577  49.331 170.7920  0.00  0.00     0.000 S
ATOM     37   O  SGN F   2     -22.963  49.479 171.1550  0.00  0.00     0.000 OA
ATOM     38   O  SGN F   2     -20.999  50.486 170.1410  0.00  0.00     0.000 OA
ATOM     39   O  SGN F   2     -21.313  48.095 170.0660  0.00  0.00     0.000 OA
BRANCH 20 40
ATOM     40  O4  IDS F   3     -16.862  49.359 174.9100  0.00  0.00     0.000 O
BRANCH 40 44
ATOM     41  C1  IDS F   3     -13.656  47.996 175.1590  0.00  0.00     0.000 C
ATOM     42  C2  IDS F   3     -13.835  49.429 174.7240  0.00  0.00     0.000 C
ATOM     43  C3  IDS F   3     -14.893  49.587 173.5660  0.00  0.00     0.000 C
ATOM     44  C4  IDS F   3     -16.144  48.772 173.8320  0.00  0.00     0.000 C
ATOM     45  C5  IDS F   3     -15.742  47.342 174.1910  0.00  0.00     0.000 C
ATOM     46  O5  IDS F   3     -14.923  47.345 175.3380  0.00  0.00     0.000 O
ATOM     47   O  IDS F   3     -13.839  52.531 175.6500  0.00  0.00     0.000 OA
ATOM     48   O  IDS F   3     -13.906  51.568 177.8110  0.00  0.00     0.000 OA
ATOM     49   O  IDS F   3     -12.107  51.081 176.2840  0.00  0.00     0.000 OA
ATOM     50   O  IDS F   3     -14.221  50.206 175.8640  0.00  0.00     0.000 O
ATOM     51   S  IDS F   3     -13.475  51.416 176.4470  0.00  0.00     0.000 S
ATOM     52   O  IDS F   3     -14.337  49.111 172.3450  0.00  0.00     0.000 O
ATOM     54  HD  IDS F   3     -13.977  49.468 173.0470  0.00  0.00     0.000 HD
ATOM     54   C  IDS F   3     -16.907  46.361 174.3630  0.00  0.00     0.000 C
ATOM     55   O  IDS F   3     -17.339  46.076 175.4770  0.00  0.00     0.000 OA
ATOM     56   O  IDS F   3     -17.455  45.837 173.3840  0.00  0.00     0.000 OA
BRANCH 41 57
ATOM     57  O4  SGN F   4     -12.850  47.341 174.2240  0.00  0.00     0.000 O
BRANCH 57 61
ATOM     58  C1  SGN F   4      -9.632  44.815 174.3300  0.00  0.00     0.000 C
ATOM     59  C2  SGN F   4     -10.791  44.479 175.2820  0.00  0.00     0.000 C
ATOM     60  C3  SGN F   4     -12.063  45.210 174.8880  0.00  0.00     0.000 C
ATOM     61  C4  SGN F   4     -11.747  46.700 174.7740  0.00  0.00     0.000 C
ATOM     62  C5  SGN F   4     -10.536  46.915 173.8460  0.00  0.00     0.000 C
ATOM     63  O5  SGN F   4      -9.428  46.200 174.3010  0.00  0.00     0.000 O
ATOM     64   N  SGN F   4     -11.002  43.045 175.3480  0.00  0.00     0.000 N
ATOM     66  HD  SGN F   4     -10.419  43.685 175.3850  0.00  0.00     0.000 HD
ATOM     66   S  SGN F   4     -10.115  42.201 176.4240  0.00  0.00     0.000 S
ATOM     67   O  SGN F   4      -8.749  42.243 175.9380  0.00  0.00     0.000 OA
ATOM     68   O  SGN F   4     -10.252  42.841 177.7310  0.00  0.00     0.000 OA
ATOM     69   O  SGN F   4     -10.687  40.875 176.3560  0.00  0.00     0.000 OA
ATOM     70   O  SGN F   4     -13.044  45.045 175.9020  0.00  0.00     0.000 O
ATOM     72  HD  SGN F   4     -12.461  45.684 175.9390  0.00  0.00     0.000 HD
ATOM     72   C  SGN F   4     -10.061  48.343 173.7650  0.00  0.00     0.000 C
ATOM     73   O  SGN F   4      -9.702  48.741 175.0680  0.00  0.00     0.000 O
ATOM     74   S  SGN F   4      -8.604  49.785 175.4220  0.00  0.00     0.000 S
ATOM     75   O  SGN F   4      -8.581  50.778 174.3990  0.00  0.00     0.000 OA
ATOM     76   O  SGN F   4      -8.952  50.352 176.7240  0.00  0.00     0.000 OA
ATOM     77   O  SGN F   4      -7.411  49.033 175.4020  0.00  0.00     0.000 OA
BRANCH 58 78
ATOM     78  O4  IDS F   5      -9.879  44.303 173.0430  0.00  0.00     0.000 O
BRANCH 78 82
ATOM     79  C1  IDS F   5      -9.746  43.022 169.8030  0.00  0.00     0.000 C
ATOM     80  C2  IDS F   5     -10.231  42.168 170.9670  0.00  0.00     0.000 C
ATOM     81  C3  IDS F   5      -9.239  42.174 172.1320  0.00  0.00     0.000 C
ATOM     82  C4  IDS F   5      -8.802  43.614 172.4750  0.00  0.00     0.000 C
ATOM     83  C5  IDS F   5      -8.351  44.335 171.2030  0.00  0.00     0.000 C
ATOM     84  O5  IDS F   5      -9.373  44.307 170.2290  0.00  0.00     0.000 O
ATOM     85   O  IDS F   5      -8.695  42.338 169.1680  0.00  0.00     0.000 OA
ATOM     86   O  IDS F   5     -11.433  42.713 171.4350  0.00  0.00     0.000 O
ATOM     87   S  IDS F   5     -12.514  42.026 172.3330  0.00  0.00     0.000 S
ATOM     88   O  IDS F   5     -11.831  41.084 173.1790  0.00  0.00     0.000 OA
ATOM     89   O  IDS F   5     -13.138  43.087 173.0910  0.00  0.00     0.000 OA
ATOM     90   O  IDS F   5     -13.401  41.372 171.4080  0.00  0.00     0.000 OA
ATOM     91   O  IDS F   5      -8.101  41.430 171.7450  0.00  0.00     0.000 O
ATOM     93  HD  IDS F   5      -7.542  42.066 171.5630  0.00  0.00     0.000 HD
ATOM     93   O  IDS F   5      -8.449  46.697 170.9750  0.00  0.00     0.000 OA
ATOM     94   O  IDS F   5      -6.868  45.972 172.1020  0.00  0.00     0.000 OA
ATOM     95   C  IDS F   5      -7.862  45.752 171.4360  0.00  0.00     0.000 C
ENDBRANCH 78 82
ENDBRANCH 58 78
ENDBRANCH 57 61
ENDBRANCH 41 57
ENDBRANCH 40 44
ENDBRANCH 20 40
ENDBRANCH 19 23
ENDBRANCH 1 19
TORSDOF 8
ENDMDL
MODEL 55
REMARK VINA RESULT:      -5.6      4.506     12.476
FFDIST PL LJ 2322 74 36 -1
ROOT
ATOM      1  C1  IDS F   1     -21.222  45.671 176.8970  0.00  0.00     0.000 C
ATOM      2  C2  IDS F   1     -21.437  44.353 177.6590  0.00  0.00     0.000 C
ATOM      3  C3  IDS F   1     -22.428  44.487 178.8410  0.00  0.00     0.000 C
ATOM      4  C4  IDS F   1     -23.624  45.425 178.5540  0.00  0.00     0.000 C
ATOM      5  C5  IDS F   1     -23.166  46.638 177.7360  0.00  0.00     0.000 C
ATOM      6  O5  IDS F   1     -22.478  46.222 176.6030  0.00  0.00     0.000 O
ATOM      7   S  IDS F   1     -21.970  41.792 176.9810  0.00  0.00     0.000 S
ATOM      8   O  IDS F   1     -22.519  41.585 178.2870  0.00  0.00     0.000 OA
ATOM      9   O  IDS F   1     -22.814  41.228 175.9690  0.00  0.00     0.000 OA
ATOM     10   O  IDS F   1     -20.591  41.378 176.8700  0.00  0.00     0.000 OA
ATOM     11   O  IDS F   1     -21.959  43.369 176.7890  0.00  0.00     0.000 O
ATOM     12   O  IDS F   1     -21.724  44.988 179.9750  0.00  0.00     0.000 O
ATOM     14  HD  IDS F   1     -22.025  45.504 180.6020  0.00  0.00     0.000 HD
ATOM     14   O  IDS F   1     -24.569  44.688 177.8180  0.00  0.00     0.000 O
ATOM     16  HD  IDS F   1     -24.870  45.204 178.4450  0.00  0.00     0.000 HD
ATOM     16   O  IDS F   1     -24.235  48.126 176.2160  0.00  0.00     0.000 OA
ATOM     17   O  IDS F   1     -25.125  47.967 178.1030  0.00  0.00     0.000 OA
ATOM     18   C  IDS F   1     -24.240  47.628 177.3340  0.00  0.00     0.000 C
ENDROOT
BRANCH 1 19
ATOM     19  O4  SGN F   2     -20.581  45.399 175.6980  0.00  0.00     0.000 O
BRANCH 19 23
ATOM     20  C1  SGN F   2     -19.317  47.774 172.5110  0.00  0.00     0.000 C
ATOM     21  C2  SGN F   2     -20.252  48.452 173.5000  0.00  0.00     0.000 C
ATOM     22  C3  SGN F   2     -20.216  47.744 174.8620  0.00  0.00     0.000 C
ATOM     23  C4  SGN F   2     -20.608  46.258 174.5780  0.00  0.00     0.000 C
ATOM     24  C5  SGN F   2     -19.594  45.730 173.6190  0.00  0.00     0.000 C
ATOM     25  O5  SGN F   2     -19.660  46.419 172.4130  0.00  0.00     0.000 O
ATOM     26   N  SGN F   2     -19.951  49.904 173.5270  0.00  0.00     0.000 N
ATOM     28  HD  SGN F   2     -19.849  50.501 174.1460  0.00  0.00     0.000 HD
ATOM     28   S  SGN F   2     -20.629  50.858 172.3280  0.00  0.00     0.000 S
ATOM     29   O  SGN F   2     -20.358  50.221 171.0590  0.00  0.00     0.000 OA
ATOM     30   O  SGN F   2     -22.041  50.890 172.6390  0.00  0.00     0.000 OA
ATOM     31   O  SGN F   2     -20.044  52.144 172.4480  0.00  0.00     0.000 OA
ATOM     32   O  SGN F   2     -21.174  48.362 175.7130  0.00  0.00     0.000 O
ATOM     34  HD  SGN F   2     -21.072  48.959 176.3320  0.00  0.00     0.000 HD
ATOM     34   C  SGN F   2     -19.811  44.289 173.2950  0.00  0.00     0.000 C
ATOM     35   O  SGN F   2     -21.119  44.212 172.8410  0.00  0.00     0.000 O
ATOM     36   S  SGN F   2     -21.802  43.005 172.2060  0.00  0.00     0.000 S
ATOM     37   O  SGN F   2     -22.979  42.784 173.0070  0.00  0.00     0.000 OA
ATOM     38   O  SGN F   2     -22.070  43.419 170.8460  0.00  0.00     0.000 OA
ATOM     39   O  SGN F   2     -20.858  41.896 172.2720  0.00  0.00     0.000 OA
BRANCH 20 40
ATOM     40  O4  IDS F   3     -17.975  47.910 172.8920  0.00  0.00     0.000 O
BRANCH 40 44
ATOM     41  C1  IDS F   3     -14.553  48.586 173.0580  0.00  0.00     0.000 C
ATOM     42  C2  IDS F   3     -15.496  49.611 172.4800  0.00  0.00     0.000 C
ATOM     43  C3  IDS F   3     -16.462  49.004 171.3920  0.00  0.00     0.000 C
ATOM     44  C4  IDS F   3     -17.050  47.678 171.8370  0.00  0.00     0.000 C
ATOM     45  C5  IDS F   3     -15.922  46.769 172.3240  0.00  0.00     0.000 C
ATOM     46  O5  IDS F   3     -15.244  47.376 173.4010  0.00  0.00     0.000 O
ATOM     47   O  IDS F   3     -17.225  52.287 173.0520  0.00  0.00     0.000 OA
ATOM     48   O  IDS F   3     -16.749  51.745 175.3050  0.00  0.00     0.000 OA
ATOM     49   O  IDS F   3     -14.980  52.131 173.7160  0.00  0.00     0.000 OA
ATOM     50   O  IDS F   3     -16.251  50.190 173.5510  0.00  0.00     0.000 O
ATOM     51   S  IDS F   3     -16.304  51.675 173.9390  0.00  0.00     0.000 S
ATOM     52   O  IDS F   3     -15.734  48.755 170.1940  0.00  0.00     0.000 O
ATOM     54  HD  IDS F   3     -15.634  49.341 170.8240  0.00  0.00     0.000 HD
ATOM     54   C  IDS F   3     -16.346  45.342 172.6880  0.00  0.00     0.000 C
ATOM     55   O  IDS F   3     -16.548  45.018 173.8560  0.00  0.00     0.000 OA
ATOM     56   O  IDS F   3     -16.508  44.478 171.8170  0.00  0.00     0.000 OA
BRANCH 41 57
ATOM     57  O4  SGN F   4     -13.517  48.366 172.1460  0.00  0.00     0.000 O
BRANCH 57 61
ATOM     58  C1  SGN F   4      -9.543  47.597 172.7500  0.00  0.00     0.000 C
ATOM     59  C2  SGN F   4     -10.364  46.466 172.1110  0.00  0.00     0.000 C
ATOM     60  C3  SGN F   4     -11.688  46.978 171.5700  0.00  0.00     0.000 C
ATOM     61  C4  SGN F   4     -12.407  47.730 172.6880  0.00  0.00     0.000 C
ATOM     62  C5  SGN F   4     -11.474  48.796 173.2950  0.00  0.00     0.000 C
ATOM     63  O5  SGN F   4     -10.292  48.217 173.7570  0.00  0.00     0.000 O
ATOM     64   N  SGN F   4      -9.596  45.792 171.0810  0.00  0.00     0.000 N
ATOM     66  HD  SGN F   4      -9.596  46.088 171.8950  0.00  0.00     0.000 HD
ATOM     66   S  SGN F   4      -8.618  44.573 171.5460  0.00  0.00     0.000 S
ATOM     67   O  SGN F   4      -7.550  45.185 172.3140  0.00  0.00     0.000 OA
ATOM     68   O  SGN F   4      -9.404  43.639 172.3510  0.00  0.00     0.000 OA
ATOM     69   O  SGN F   4      -8.155  44.023 170.2920  0.00  0.00     0.000 OA
ATOM     70   O  SGN F   4     -12.504  45.881 171.1830  0.00  0.00     0.000 O
ATOM     72  HD  SGN F   4     -12.504  46.177 171.9970  0.00  0.00     0.000 HD
ATOM     72   C  SGN F   4     -12.043  49.511 174.4930  0.00  0.00     0.000 C
ATOM     73   O  SGN F   4     -12.309  48.537 175.4760  0.00  0.00     0.000 O
ATOM     74   S  SGN F   4     -12.263  48.773 177.0130  0.00  0.00     0.000 S
ATOM     75   O  SGN F   4     -12.684  50.109 177.2780  0.00  0.00     0.000 OA
ATOM     76   O  SGN F   4     -13.154  47.789 177.6270  0.00  0.00     0.000 OA
ATOM     77   O  SGN F   4     -10.898  48.617 177.3330  0.00  0.00     0.000 OA
BRANCH 58 78
ATOM     78  O4  IDS F   5      -9.124  48.522 171.7760  0.00  0.00     0.000 O
BRANCH 78 82
ATOM     79  C1  IDS F   5      -7.452  50.778 169.7100  0.00  0.00     0.000 C
ATOM     80  C2  IDS F   5      -7.771  49.366 169.2370  0.00  0.00     0.000 C
ATOM     81  C3  IDS F   5      -7.294  48.308 170.2350  0.00  0.00     0.000 C
ATOM     82  C4  IDS F   5      -7.737  48.666 171.6690  0.00  0.00     0.000 C
ATOM     83  C5  IDS F   5      -7.350  50.112 171.9850  0.00  0.00     0.000 C
ATOM     84  O5  IDS F   5      -7.896  50.992 171.0250  0.00  0.00     0.000 O
ATOM     85   O  IDS F   5      -6.069  50.985 169.5670  0.00  0.00     0.000 OA
ATOM     86   O  IDS F   5      -9.162  49.247 169.1300  0.00  0.00     0.000 O
ATOM     87   S  IDS F   5      -9.976  48.167 168.3440  0.00  0.00     0.000 S
ATOM     88   O  IDS F   5      -9.198  46.957 168.3500  0.00  0.00     0.000 OA
ATOM     89   O  IDS F   5     -11.227  48.014 169.0510  0.00  0.00     0.000 OA
ATOM     90   O  IDS F   5     -10.119  48.706 167.0170  0.00  0.00     0.000 OA
ATOM     91   O  IDS F   5      -5.882  48.265 170.1890  0.00  0.00     0.000 O
ATOM     93  HD  IDS F   5      -5.679  48.706 170.9060  0.00  0.00     0.000 HD
ATOM     93   O  IDS F   5      -8.519  51.424 173.5840  0.00  0.00     0.000 OA
ATOM     94   O  IDS F   5      -7.189  50.038 174.3630  0.00  0.00     0.000 OA
ATOM     95   C  IDS F   5      -7.708  50.555 173.3920  0.00  0.00     0.000 C
ENDBRANCH 78 82
ENDBRANCH 58 78
ENDBRANCH 57 61
ENDBRANCH 41 57
ENDBRANCH 40 44
ENDBRANCH 20 40
ENDBRANCH 19 23
ENDBRANCH 1 19
TORSDOF 8
ENDMDL
MODEL 56
REMARK VINA RESULT:      -5.6      3.010     12.625
FFDIST PL LJ 2322 74 36 -1
ROOT
ATOM      1  C1  IDS F   1     -19.636  56.236 170.5760  0.00  0.00     0.000 C
ATOM      2  C2  IDS F   1     -20.902  55.916 169.7640  0.00  0.00     0.000 C
ATOM      3  C3  IDS F   1     -21.435  57.129 168.9630  0.00  0.00     0.000 C
ATOM      4  C4  IDS F   1     -20.324  58.018 168.3560  0.00  0.00     0.000 C
ATOM      5  C5  IDS F   1     -19.149  58.142 169.3320  0.00  0.00     0.000 C
ATOM      6  O5  IDS F   1     -18.721  56.882 169.7330  0.00  0.00     0.000 O
ATOM      7   S  IDS F   1     -21.669  53.954 168.0710  0.00  0.00     0.000 S
ATOM      8   O  IDS F   1     -22.624  54.854 167.4970  0.00  0.00     0.000 OA
ATOM      9   O  IDS F   1     -20.957  53.237 167.0540  0.00  0.00     0.000 OA
ATOM     10   O  IDS F   1     -22.234  53.095 169.0860  0.00  0.00     0.000 OA
ATOM     11   O  IDS F   1     -20.633  54.888 168.8310  0.00  0.00     0.000 O
ATOM     12   O  IDS F   1     -22.234  57.933 169.8270  0.00  0.00     0.000 O
ATOM     14  HD  IDS F   1     -22.334  58.793 169.8120  0.00  0.00     0.000 HD
ATOM     14   O  IDS F   1     -19.891  57.399 167.1700  0.00  0.00     0.000 O
ATOM     16  HD  IDS F   1     -19.991  58.259 167.1550  0.00  0.00     0.000 HD
ATOM     16   O  IDS F   1     -16.818  58.565 169.0930  0.00  0.00     0.000 OA
ATOM     17   O  IDS F   1     -18.088  59.995 168.2450  0.00  0.00     0.000 OA
ATOM     18   C  IDS F   1     -17.956  58.947 168.8570  0.00  0.00     0.000 C
ENDROOT
BRANCH 1 19
ATOM     19  O4  SGN F   2     -19.063  55.048 171.0040  0.00  0.00     0.000 O
BRANCH 19 23
ATOM     20  C1  SGN F   2     -18.795  52.491 174.2870  0.00  0.00     0.000 C
ATOM     21  C2  SGN F   2     -20.202  52.746 173.7720  0.00  0.00     0.000 C
ATOM     22  C3  SGN F   2     -20.175  53.206 172.3070  0.00  0.00     0.000 C
ATOM     23  C4  SGN F   2     -19.278  54.485 172.2800  0.00  0.00     0.000 C
ATOM     24  C5  SGN F   2     -17.937  54.071 172.7870  0.00  0.00     0.000 C
ATOM     25  O5  SGN F   2     -18.026  53.648 174.1090  0.00  0.00     0.000 O
ATOM     26   N  SGN F   2     -21.040  51.555 174.0520  0.00  0.00     0.000 N
ATOM     28  HD  SGN F   2     -21.616  51.088 173.6050  0.00  0.00     0.000 HD
ATOM     28   S  SGN F   2     -21.696  51.412 175.5870  0.00  0.00     0.000 S
ATOM     29   O  SGN F   2     -20.627  51.622 176.5380  0.00  0.00     0.000 OA
ATOM     30   O  SGN F   2     -22.704  52.447 175.6530  0.00  0.00     0.000 OA
ATOM     31   O  SGN F   2     -22.275  50.121 175.6670  0.00  0.00     0.000 OA
ATOM     32   O  SGN F   2     -21.505  53.517 171.9100  0.00  0.00     0.000 O
ATOM     34  HD  SGN F   2     -22.081  53.049 171.4630  0.00  0.00     0.000 HD
ATOM     34   C  SGN F   2     -16.949  55.189 172.7660  0.00  0.00     0.000 C
ATOM     35   O  SGN F   2     -17.541  56.211 173.4920  0.00  0.00     0.000 O
ATOM     36   S  SGN F   2     -16.893  57.518 173.9370  0.00  0.00     0.000 S
ATOM     37   O  SGN F   2     -17.755  58.551 173.4220  0.00  0.00     0.000 OA
ATOM     38   O  SGN F   2     -16.860  57.428 175.3810  0.00  0.00     0.000 OA
ATOM     39   O  SGN F   2     -15.558  57.554 173.3530  0.00  0.00     0.000 OA
BRANCH 20 40
ATOM     40  O4  IDS F   3     -18.196  51.403 173.6360  0.00  0.00     0.000 O
BRANCH 40 44
ATOM     41  C1  IDS F   3     -16.674  48.341 172.9280  0.00  0.00     0.000 C
ATOM     42  C2  IDS F   3     -17.704  48.435 174.0250  0.00  0.00     0.000 C
ATOM     43  C3  IDS F   3     -17.419  49.616 175.0290  0.00  0.00     0.000 C
ATOM     44  C4  IDS F   3     -17.047  50.895 174.3020  0.00  0.00     0.000 C
ATOM     45  C5  IDS F   3     -15.948  50.590 173.2850  0.00  0.00     0.000 C
ATOM     46  O5  IDS F   3     -16.401  49.630 172.3570  0.00  0.00     0.000 O
ATOM     47   O  IDS F   3     -20.812  48.014 174.8280  0.00  0.00     0.000 OA
ATOM     48   O  IDS F   3     -21.084  47.888 172.4810  0.00  0.00     0.000 OA
ATOM     49   O  IDS F   3     -19.631  46.364 173.6520  0.00  0.00     0.000 OA
ATOM     50   O  IDS F   3     -18.996  48.589 173.4260  0.00  0.00     0.000 O
ATOM     51   S  IDS F   3     -20.205  47.658 173.5970  0.00  0.00     0.000 S
ATOM     52   O  IDS F   3     -16.316  49.277 175.8640  0.00  0.00     0.000 O
ATOM     54  HD  IDS F   3     -16.918  48.794 175.4700  0.00  0.00     0.000 HD
ATOM     54   C  IDS F   3     -15.375  51.812 172.5580  0.00  0.00     0.000 C
ATOM     55   O  IDS F   3     -15.756  52.118 171.4310  0.00  0.00     0.000 OA
ATOM     56   O  IDS F   3     -14.520  52.533 173.0900  0.00  0.00     0.000 OA
BRANCH 41 57
ATOM     57  O4  SGN F   4     -15.525  47.733 173.4420  0.00  0.00     0.000 O
BRANCH 57 61
ATOM     58  C1  SGN F   4     -12.421  45.477 172.0200  0.00  0.00     0.000 C
ATOM     59  C2  SGN F   4     -12.501  46.923 171.5050  0.00  0.00     0.000 C
ATOM     60  C3  SGN F   4     -13.413  47.772 172.3740  0.00  0.00     0.000 C
ATOM     61  C4  SGN F   4     -14.761  47.065 172.4920  0.00  0.00     0.000 C
ATOM     62  C5  SGN F   4     -14.558  45.610 172.9570  0.00  0.00     0.000 C
ATOM     63  O5  SGN F   4     -13.706  44.926 172.0900  0.00  0.00     0.000 O
ATOM     64   N  SGN F   4     -11.177  47.505 171.3990  0.00  0.00     0.000 N
ATOM     66  HD  SGN F   4     -11.674  46.820 171.2150  0.00  0.00     0.000 HD
ATOM     66   S  SGN F   4     -10.350  47.252 170.0170  0.00  0.00     0.000 S
ATOM     67   O  SGN F   4     -10.019  45.840 170.0000  0.00  0.00     0.000 OA
ATOM     68   O  SGN F   4     -11.209  47.626 168.8960  0.00  0.00     0.000 OA
ATOM     69   O  SGN F   4      -9.184  48.093 170.1700  0.00  0.00     0.000 OA
ATOM     70   O  SGN F   4     -13.630  49.031 171.7530  0.00  0.00     0.000 O
ATOM     72  HD  SGN F   4     -14.127  48.347 171.5680  0.00  0.00     0.000 HD
ATOM     72   C  SGN F   4     -15.818  44.784 172.9850  0.00  0.00     0.000 C
ATOM     73   O  SGN F   4     -16.338  44.767 171.6750  0.00  0.00     0.000 O
ATOM     74   S  SGN F   4     -17.167  43.608 171.0490  0.00  0.00     0.000 S
ATOM     75   O  SGN F   4     -17.950  43.008 172.0780  0.00  0.00     0.000 OA
ATOM     76   O  SGN F   4     -18.000  44.193 170.0000  0.00  0.00     0.000 OA
ATOM     77   O  SGN F   4     -16.184  42.706 170.5920  0.00  0.00     0.000 OA
BRANCH 58 78
ATOM     78  O4  IDS F   5     -11.770  45.426 173.2660  0.00  0.00     0.000 O
BRANCH 78 82
ATOM     79  C1  IDS F   5      -9.991  44.601 176.1480  0.00  0.00     0.000 C
ATOM     80  C2  IDS F   5      -9.449  45.618 175.1540  0.00  0.00     0.000 C
ATOM     81  C3  IDS F   5      -9.439  45.071 173.7250  0.00  0.00     0.000 C
ATOM     82  C4  IDS F   5     -10.797  44.428 173.3730  0.00  0.00     0.000 C
ATOM     83  C5  IDS F   5     -11.200  43.439 174.4690  0.00  0.00     0.000 C
ATOM     84  O5  IDS F   5     -11.225  44.079 175.7280  0.00  0.00     0.000 O
ATOM     85   O  IDS F   5      -9.016  43.603 176.3270  0.00  0.00     0.000 OA
ATOM     86   O  IDS F   5     -10.292  46.736 175.1710  0.00  0.00     0.000 O
ATOM     87   S  IDS F   5      -9.990  48.176 174.6430  0.00  0.00     0.000 S
ATOM     88   O  IDS F   5      -9.075  48.044 173.5400  0.00  0.00     0.000 OA
ATOM     89   O  IDS F   5     -11.261  48.729 174.2340  0.00  0.00     0.000 OA
ATOM     90   O  IDS F   5      -9.390  48.860 175.7580  0.00  0.00     0.000 OA
ATOM     91   O  IDS F   5      -8.428  44.087 173.6370  0.00  0.00     0.000 O
ATOM     93  HD  IDS F   5      -8.901  43.362 173.6690  0.00  0.00     0.000 HD
ATOM     93   O  IDS F   5     -13.467  42.883 174.9120  0.00  0.00     0.000 OA
ATOM     94   O  IDS F   5     -12.625  41.961 173.2560  0.00  0.00     0.000 OA
ATOM     95   C  IDS F   5     -12.508  42.719 174.2010  0.00  0.00     0.000 C
ENDBRANCH 78 82
ENDBRANCH 58 78
ENDBRANCH 57 61
ENDBRANCH 41 57
ENDBRANCH 40 44
ENDBRANCH 20 40
ENDBRANCH 19 23
ENDBRANCH 1 19
TORSDOF 8
ENDMDL
MODEL 57
REMARK VINA RESULT:      -5.5      3.919     13.339
FFDIST PL LJ 2322 74 36 -1
ROOT
ATOM      1  C1  IDS F   1     -21.497  48.409 176.5690  0.00  0.00     0.000 C
ATOM      2  C2  IDS F   1     -22.189  47.046 176.7350  0.00  0.00     0.000 C
ATOM      3  C3  IDS F   1     -23.722  47.160 176.9160  0.00  0.00     0.000 C
ATOM      4  C4  IDS F   1     -24.376  48.265 176.0540  0.00  0.00     0.000 C
ATOM      5  C5  IDS F   1     -23.471  49.501 175.9960  0.00  0.00     0.000 C
ATOM      6  O5  IDS F   1     -22.190  49.142 175.5950  0.00  0.00     0.000 O
ATOM      7   S  IDS F   1     -22.114  44.670 175.4520  0.00  0.00     0.000 S
ATOM      8   O  IDS F   1     -23.419  44.378 175.9640  0.00  0.00     0.000 OA
ATOM      9   O  IDS F   1     -22.018  44.338 174.0600  0.00  0.00     0.000 OA
ATOM     10   O  IDS F   1     -21.049  44.105 176.2480  0.00  0.00     0.000 OA
ATOM     11   O  IDS F   1     -21.963  46.245 175.5930  0.00  0.00     0.000 O
ATOM     12   O  IDS F   1     -24.004  47.431 178.2860  0.00  0.00     0.000 O
ATOM     14  HD  IDS F   1     -24.654  47.902 178.6120  0.00  0.00     0.000 HD
ATOM     14   O  IDS F   1     -24.546  47.743 174.7590  0.00  0.00     0.000 O
ATOM     16  HD  IDS F   1     -25.196  48.214 175.0850  0.00  0.00     0.000 HD
ATOM     16   O  IDS F   1     -23.171  51.280 174.4430  0.00  0.00     0.000 OA
ATOM     17   O  IDS F   1     -25.125  51.008 175.1410  0.00  0.00     0.000 OA
ATOM     18   C  IDS F   1     -23.956  50.657 175.1450  0.00  0.00     0.000 C
ENDROOT
BRANCH 1 19
ATOM     19  O4  SGN F   2     -20.203  48.205 176.1130  0.00  0.00     0.000 O
BRANCH 19 23
ATOM     20  C1  SGN F   2     -17.101  50.048 174.0220  0.00  0.00     0.000 C
ATOM     21  C2  SGN F   2     -17.775  50.907 175.0800  0.00  0.00     0.000 C
ATOM     22  C3  SGN F   2     -18.474  50.033 176.1320  0.00  0.00     0.000 C
ATOM     23  C4  SGN F   2     -19.484  49.142 175.3400  0.00  0.00     0.000 C
ATOM     24  C5  SGN F   2     -18.676  48.349 174.3670  0.00  0.00     0.000 C
ATOM     25  O5  SGN F   2     -18.053  49.193 173.4520  0.00  0.00     0.000 O
ATOM     26   N  SGN F   2     -16.789  51.878 175.6110  0.00  0.00     0.000 N
ATOM     28  HD  SGN F   2     -16.562  52.159 176.3980  0.00  0.00     0.000 HD
ATOM     28   S  SGN F   2     -16.529  53.279 174.7300  0.00  0.00     0.000 S
ATOM     29   O  SGN F   2     -16.300  52.892 173.3560  0.00  0.00     0.000 OA
ATOM     30   O  SGN F   2     -17.745  54.045 174.8910  0.00  0.00     0.000 OA
ATOM     31   O  SGN F   2     -15.422  53.937 175.3220  0.00  0.00     0.000 OA
ATOM     32   O  SGN F   2     -19.162  50.887 177.0380  0.00  0.00     0.000 O
ATOM     34  HD  SGN F   2     -18.935  51.168 177.8250  0.00  0.00     0.000 HD
ATOM     34   C  SGN F   2     -19.509  47.403 173.5700  0.00  0.00     0.000 C
ATOM     35   O  SGN F   2     -20.494  48.187 172.9860  0.00  0.00     0.000 O
ATOM     36   S  SGN F   2     -21.503  47.759 171.9270  0.00  0.00     0.000 S
ATOM     37   O  SGN F   2     -22.789  48.085 172.4900  0.00  0.00     0.000 OA
ATOM     38   O  SGN F   2     -21.146  48.532 170.7580  0.00  0.00     0.000 OA
ATOM     39   O  SGN F   2     -21.325  46.327 171.7210  0.00  0.00     0.000 OA
BRANCH 20 40
ATOM     40  O4  IDS F   3     -16.039  49.306 174.5590  0.00  0.00     0.000 O
BRANCH 40 44
ATOM     41  C1  IDS F   3     -12.778  48.074 174.7570  0.00  0.00     0.000 C
ATOM     42  C2  IDS F   3     -13.079  49.274 173.8950  0.00  0.00     0.000 C
ATOM     43  C3  IDS F   3     -14.304  49.039 172.9310  0.00  0.00     0.000 C
ATOM     44  C4  IDS F   3     -15.466  48.378 173.6480  0.00  0.00     0.000 C
ATOM     45  C5  IDS F   3     -14.955  47.152 174.4040  0.00  0.00     0.000 C
ATOM     46  O5  IDS F   3     -13.974  47.537 175.3410  0.00  0.00     0.000 O
ATOM     47   O  IDS F   3     -13.076  52.505 173.7020  0.00  0.00     0.000 OA
ATOM     48   O  IDS F   3     -12.779  52.339 176.0440  0.00  0.00     0.000 OA
ATOM     49   O  IDS F   3     -11.210  51.339 174.5140  0.00  0.00     0.000 OA
ATOM     50   O  IDS F   3     -13.323  50.398 174.7480  0.00  0.00     0.000 O
ATOM     51   S  IDS F   3     -12.550  51.725 174.7630  0.00  0.00     0.000 S
ATOM     52   O  IDS F   3     -13.917  48.167 171.8730  0.00  0.00     0.000 O
ATOM     54  HD  IDS F   3     -13.472  48.739 172.3470  0.00  0.00     0.000 HD
ATOM     54   C  IDS F   3     -16.039  46.303 175.0760  0.00  0.00     0.000 C
ATOM     55   O  IDS F   3     -16.287  46.421 176.2740  0.00  0.00     0.000 OA
ATOM     56   O  IDS F   3     -16.703  45.481 174.4310  0.00  0.00     0.000 OA
BRANCH 41 57
ATOM     57  O4  SGN F   4     -12.092  47.129 173.9870  0.00  0.00     0.000 O
BRANCH 57 61
ATOM     58  C1  SGN F   4      -8.764  44.780 174.3710  0.00  0.00     0.000 C
ATOM     59  C2  SGN F   4      -9.954  44.424 175.2760  0.00  0.00     0.000 C
ATOM     60  C3  SGN F   4     -11.238  45.071 174.7850  0.00  0.00     0.000 C
ATOM     61  C4  SGN F   4     -10.991  46.569 174.6210  0.00  0.00     0.000 C
ATOM     62  C5  SGN F   4      -9.743  46.809 173.7490  0.00  0.00     0.000 C
ATOM     63  O5  SGN F   4      -8.627  46.171 174.2910  0.00  0.00     0.000 O
ATOM     64   N  SGN F   4     -10.097  42.986 175.3940  0.00  0.00     0.000 N
ATOM     66  HD  SGN F   4      -9.550  43.655 175.4330  0.00  0.00     0.000 HD
ATOM     66   S  SGN F   4      -9.228  42.234 176.5510  0.00  0.00     0.000 S
ATOM     67   O  SGN F   4      -7.842  42.327 176.1350  0.00  0.00     0.000 OA
ATOM     68   O  SGN F   4      -9.467  42.920 177.8200  0.00  0.00     0.000 OA
ATOM     69   O  SGN F   4      -9.729  40.879 176.5130  0.00  0.00     0.000 OA
ATOM     70   O  SGN F   4     -12.262  44.898 175.7530  0.00  0.00     0.000 O
ATOM     72  HD  SGN F   4     -11.715  45.568 175.7920  0.00  0.00     0.000 HD
ATOM     72   C  SGN F   4      -9.336  48.254 173.6290  0.00  0.00     0.000 C
ATOM     73   O  SGN F   4      -9.069  48.725 174.9300  0.00  0.00     0.000 O
ATOM     74   S  SGN F   4      -8.044  49.838 175.2920  0.00  0.00     0.000 S
ATOM     75   O  SGN F   4      -8.015  50.787 174.2290  0.00  0.00     0.000 OA
ATOM     76   O  SGN F   4      -8.489  50.440 176.5480  0.00  0.00     0.000 OA
ATOM     77   O  SGN F   4      -6.816  49.149 175.3680  0.00  0.00     0.000 OA
BRANCH 58 78
ATOM     78  O4  IDS F   5      -8.916  44.202 173.0960  0.00  0.00     0.000 O
BRANCH 78 82
ATOM     79  C1  IDS F   5      -8.537  42.828 169.9160  0.00  0.00     0.000 C
ATOM     80  C2  IDS F   5      -9.030  41.984 171.0830  0.00  0.00     0.000 C
ATOM     81  C3  IDS F   5      -8.102  42.089 172.2960  0.00  0.00     0.000 C
ATOM     82  C4  IDS F   5      -7.771  43.563 172.6090  0.00  0.00     0.000 C
ATOM     83  C5  IDS F   5      -7.298  44.269 171.3360  0.00  0.00     0.000 C
ATOM     84  O5  IDS F   5      -8.264  44.147 170.3130  0.00  0.00     0.000 O
ATOM     85   O  IDS F   5      -7.415  42.189 169.3590  0.00  0.00     0.000 OA
ATOM     86   O  IDS F   5     -10.285  42.468 171.4710  0.00  0.00     0.000 O
ATOM     87   S  IDS F   5     -11.369  41.746 172.3370  0.00  0.00     0.000 S
ATOM     88   O  IDS F   5     -10.676  40.875 173.2490  0.00  0.00     0.000 OA
ATOM     89   O  IDS F   5     -12.094  42.790 173.0250  0.00  0.00     0.000 OA
ATOM     90   O  IDS F   5     -12.165  41.009 171.3930  0.00  0.00     0.000 OA
ATOM     91   O  IDS F   5      -6.903  41.404 171.9920  0.00  0.00     0.000 O
ATOM     93  HD  IDS F   5      -6.374  42.066 171.8160  0.00  0.00     0.000 HD
ATOM     93   O  IDS F   5      -7.526  46.612 171.0190  0.00  0.00     0.000 OA
ATOM     94   O  IDS F   5      -5.965  46.022 172.2490  0.00  0.00     0.000 OA
ATOM     95   C  IDS F   5      -6.908  45.721 171.5430  0.00  0.00     0.000 C
ENDBRANCH 78 82
ENDBRANCH 58 78
ENDBRANCH 57 61
ENDBRANCH 41 57
ENDBRANCH 40 44
ENDBRANCH 20 40
ENDBRANCH 19 23
ENDBRANCH 1 19
TORSDOF 8
ENDMDL
MODEL 58
REMARK VINA RESULT:      -5.5      3.746      5.723
FFDIST PL LJ 2322 74 36 -1
ROOT
ATOM      1  C1  IDS F   1      -8.558  47.521 172.4210  0.00  0.00     0.000 C
ATOM      2  C2  IDS F   1      -8.641  48.361 171.1370  0.00  0.00     0.000 C
ATOM      3  C3  IDS F   1      -7.981  49.755 171.2760  0.00  0.00     0.000 C
ATOM      4  C4  IDS F   1      -6.688  49.755 172.1240  0.00  0.00     0.000 C
ATOM      5  C5  IDS F   1      -6.832  48.801 173.3150  0.00  0.00     0.000 C
ATOM      6  O5  IDS F   1      -7.232  47.544 172.8800  0.00  0.00     0.000 O
ATOM      7   S  IDS F   1      -8.137  47.943 168.5150  0.00  0.00     0.000 S
ATOM      8   O  IDS F   1      -7.959  49.354 168.3480  0.00  0.00     0.000 OA
ATOM      9   O  IDS F   1      -7.103  47.208 167.8470  0.00  0.00     0.000 OA
ATOM     10   O  IDS F   1      -9.467  47.492 168.1780  0.00  0.00     0.000 OA
ATOM     11   O  IDS F   1      -7.985  47.695 170.0770  0.00  0.00     0.000 O
ATOM     12   O  IDS F   1      -8.916  50.646 171.8790  0.00  0.00     0.000 O
ATOM     14  HD  IDS F   1      -8.751  51.310 172.4100  0.00  0.00     0.000 HD
ATOM     14   O  IDS F   1      -5.641  49.319 171.2930  0.00  0.00     0.000 O
ATOM     16  HD  IDS F   1      -5.476  49.983 171.8230  0.00  0.00     0.000 HD
ATOM     16   O  IDS F   1      -5.303  47.558 174.6520  0.00  0.00     0.000 OA
ATOM     17   O  IDS F   1      -4.943  49.616 174.5440  0.00  0.00     0.000 OA
ATOM     18   C  IDS F   1      -5.622  48.656 174.2160  0.00  0.00     0.000 C
ENDROOT
BRANCH 1 19
ATOM     19  O4  SGN F   2      -8.886  46.207 172.1220  0.00  0.00     0.000 O
BRANCH 19 23
ATOM     20  C1  SGN F   2     -12.399  44.543 173.6320  0.00  0.00     0.000 C
ATOM     21  C2  SGN F   2     -11.466  45.148 174.6680  0.00  0.00     0.000 C
ATOM     22  C3  SGN F   2     -10.531  46.183 174.0260  0.00  0.00     0.000 C
ATOM     23  C4  SGN F   2      -9.768  45.421 172.8950  0.00  0.00     0.000 C
ATOM     24  C5  SGN F   2     -10.808  44.911 171.9530  0.00  0.00     0.000 C
ATOM     25  O5  SGN F   2     -11.635  43.994 172.5940  0.00  0.00     0.000 O
ATOM     26   N  SGN F   2     -12.272  45.639 175.8110  0.00  0.00     0.000 N
ATOM     28  HD  SGN F   2     -12.286  46.360 176.2920  0.00  0.00     0.000 HD
ATOM     28   S  SGN F   2     -12.733  44.522 176.9720  0.00  0.00     0.000 S
ATOM     29   O  SGN F   2     -13.312  43.392 176.2810  0.00  0.00     0.000 OA
ATOM     30   O  SGN F   2     -11.508  44.180 177.6590  0.00  0.00     0.000 OA
ATOM     31   O  SGN F   2     -13.644  45.180 177.8360  0.00  0.00     0.000 OA
ATOM     32   O  SGN F   2      -9.624  46.645 175.0190  0.00  0.00     0.000 O
ATOM     34  HD  SGN F   2      -9.638  47.365 175.5000  0.00  0.00     0.000 HD
ATOM     34   C  SGN F   2     -10.218  44.202 170.7810  0.00  0.00     0.000 C
ATOM     35   O  SGN F   2      -9.408  43.215 171.3230  0.00  0.00     0.000 O
ATOM     36   S  SGN F   2      -8.709  42.085 170.5740  0.00  0.00     0.000 S
ATOM     37   O  SGN F   2      -7.318  42.213 170.9290  0.00  0.00     0.000 OA
ATOM     38   O  SGN F   2      -9.345  40.882 171.0650  0.00  0.00     0.000 OA
ATOM     39   O  SGN F   2      -8.950  42.300 169.1530  0.00  0.00     0.000 OA
BRANCH 20 40
ATOM     40  O4  IDS F   3     -13.297  45.494 173.1260  0.00  0.00     0.000 O
BRANCH 40 44
ATOM     41  C1  IDS F   3     -16.043  47.585 172.6000  0.00  0.00     0.000 C
ATOM     42  C2  IDS F   3     -15.573  47.297 174.0040  0.00  0.00     0.000 C
ATOM     43  C3  IDS F   3     -15.380  45.756 174.2770  0.00  0.00     0.000 C
ATOM     44  C4  IDS F   3     -14.653  45.069 173.1360  0.00  0.00     0.000 C
ATOM     45  C5  IDS F   3     -15.327  45.444 171.8160  0.00  0.00     0.000 C
ATOM     46  O5  IDS F   3     -15.287  46.841 171.6340  0.00  0.00     0.000 O
ATOM     47   O  IDS F   3     -13.799  48.337 176.5040  0.00  0.00     0.000 OA
ATOM     48   O  IDS F   3     -12.946  49.833 174.8820  0.00  0.00     0.000 OA
ATOM     49   O  IDS F   3     -15.297  49.768 175.4030  0.00  0.00     0.000 OA
ATOM     50   O  IDS F   3     -14.346  48.002 174.2270  0.00  0.00     0.000 O
ATOM     51   S  IDS F   3     -14.076  49.054 175.3130  0.00  0.00     0.000 S
ATOM     52   O  IDS F   3     -16.653  45.130 174.3960  0.00  0.00     0.000 O
ATOM     54  HD  IDS F   3     -16.382  45.933 174.5720  0.00  0.00     0.000 HD
ATOM     54   C  IDS F   3     -14.782  44.723 170.5790  0.00  0.00     0.000 C
ATOM     55   O  IDS F   3     -13.967  45.264 169.8350  0.00  0.00     0.000 OA
ATOM     56   O  IDS F   3     -15.138  43.571 170.2980  0.00  0.00     0.000 OA
BRANCH 41 57
ATOM     57  O4  SGN F   4     -17.413  47.319 172.5230  0.00  0.00     0.000 O
BRANCH 57 61
ATOM     58  C1  SGN F   4     -20.631  49.478 171.2080  0.00  0.00     0.000 C
ATOM     59  C2  SGN F   4     -20.115  48.384 170.2610  0.00  0.00     0.000 C
ATOM     60  C3  SGN F   4     -19.212  47.402 170.9860  0.00  0.00     0.000 C
ATOM     61  C4  SGN F   4     -18.117  48.190 171.7010  0.00  0.00     0.000 C
ATOM     62  C5  SGN F   4     -18.743  49.296 172.5730  0.00  0.00     0.000 C
ATOM     63  O5  SGN F   4     -19.550  50.136 171.8070  0.00  0.00     0.000 O
ATOM     64   N  SGN F   4     -21.219  47.707 169.6090  0.00  0.00     0.000 N
ATOM     66  HD  SGN F   4     -20.872  48.473 169.8150  0.00  0.00     0.000 HD
ATOM     66   S  SGN F   4     -21.802  48.365 168.2350  0.00  0.00     0.000 S
ATOM     67   O  SGN F   4     -22.448  49.604 168.6270  0.00  0.00     0.000 OA
ATOM     68   O  SGN F   4     -20.681  48.595 167.3270  0.00  0.00     0.000 OA
ATOM     69   O  SGN F   4     -22.744  47.373 167.7670  0.00  0.00     0.000 OA
ATOM     70   O  SGN F   4     -18.590  46.538 170.0460  0.00  0.00     0.000 O
ATOM     72  HD  SGN F   4     -18.242  47.304 170.2530  0.00  0.00     0.000 HD
ATOM     72   C  SGN F   4     -17.742  50.215 173.2240  0.00  0.00     0.000 C
ATOM     73   O  SGN F   4     -17.001  50.826 172.1930  0.00  0.00     0.000 O
ATOM     74   S  SGN F   4     -16.365  52.244 172.2590  0.00  0.00     0.000 S
ATOM     75   O  SGN F   4     -15.956  52.494 173.6020  0.00  0.00     0.000 OA
ATOM     76   O  SGN F   4     -15.232  52.252 171.3350  0.00  0.00     0.000 OA
ATOM     77   O  SGN F   4     -17.427  53.102 171.9030  0.00  0.00     0.000 OA
BRANCH 58 78
ATOM     78  O4  IDS F   5     -21.502  48.935 172.1710  0.00  0.00     0.000 O
BRANCH 78 82
ATOM     79  C1  IDS F   5     -23.925  48.303 174.5960  0.00  0.00     0.000 C
ATOM     80  C2  IDS F   5     -24.023  47.687 173.2070  0.00  0.00     0.000 C
ATOM     81  C3  IDS F   5     -23.895  48.741 172.1040  0.00  0.00     0.000 C
ATOM     82  C4  IDS F   5     -22.682  49.661 172.3610  0.00  0.00     0.000 C
ATOM     83  C5  IDS F   5     -22.729  50.190 173.7960  0.00  0.00     0.000 C
ATOM     84  O5  IDS F   5     -22.789  49.120 174.7170  0.00  0.00     0.000 O
ATOM     85   O  IDS F   5     -25.120  48.998 174.8510  0.00  0.00     0.000 OA
ATOM     86   O  IDS F   5     -22.962  46.787 173.0530  0.00  0.00     0.000 O
ATOM     87   S  IDS F   5     -22.819  45.640 172.0010  0.00  0.00     0.000 S
ATOM     88   O  IDS F   5     -23.519  46.058 170.8150  0.00  0.00     0.000 OA
ATOM     89   O  IDS F   5     -21.401  45.481 171.7690  0.00  0.00     0.000 OA
ATOM     90   O  IDS F   5     -23.440  44.496 172.6140  0.00  0.00     0.000 OA
ATOM     91   O  IDS F   5     -25.072  49.524 172.1050  0.00  0.00     0.000 O
ATOM     93  HD  IDS F   5     -24.795  50.239 172.5070  0.00  0.00     0.000 HD
ATOM     93   O  IDS F   5     -20.775  50.851 174.9740  0.00  0.00     0.000 OA
ATOM     94   O  IDS F   5     -21.486  52.213 173.5830  0.00  0.00     0.000 OA
ATOM     95   C  IDS F   5     -21.597  51.139 174.1420  0.00  0.00     0.000 C
ENDBRANCH 78 82
ENDBRANCH 58 78
ENDBRANCH 57 61
ENDBRANCH 41 57
ENDBRANCH 40 44
ENDBRANCH 20 40
ENDBRANCH 19 23
ENDBRANCH 1 19
TORSDOF 8
ENDMDL
MODEL 59
REMARK VINA RESULT:      -5.5      2.215      3.115
FFDIST PL LJ 2322 74 36 -1
ROOT
ATOM      1  C1  IDS F   1     -11.566  47.537 172.4300  0.00  0.00     0.000 C
ATOM      2  C2  IDS F   1     -11.063  46.101 172.6530  0.00  0.00     0.000 C
ATOM      3  C3  IDS F   1      -9.836  45.743 171.7790  0.00  0.00     0.000 C
ATOM      4  C4  IDS F   1      -8.828  46.903 171.6060  0.00  0.00     0.000 C
ATOM      5  C5  IDS F   1      -9.570  48.236 171.4580  0.00  0.00     0.000 C
ATOM      6  O5  IDS F   1     -10.467  48.407 172.5040  0.00  0.00     0.000 O
ATOM      7   S  IDS F   1     -10.485  44.565 174.7990  0.00  0.00     0.000 S
ATOM      8   O  IDS F   1      -9.626  43.772 173.9720  0.00  0.00     0.000 OA
ATOM      9   O  IDS F   1      -9.858  44.871 176.0530  0.00  0.00     0.000 OA
ATOM     10   O  IDS F   1     -11.810  44.009 174.9460  0.00  0.00     0.000 OA
ATOM     11   O  IDS F   1     -10.678  45.925 174.0020  0.00  0.00     0.000 O
ATOM     12   O  IDS F   1     -10.293  45.346 170.4890  0.00  0.00     0.000 O
ATOM     14  HD  IDS F   1      -9.898  45.462 169.7260  0.00  0.00     0.000 HD
ATOM     14   O  IDS F   1      -8.023  46.935 172.7590  0.00  0.00     0.000 O
ATOM     16  HD  IDS F   1      -7.629  47.051 171.9970  0.00  0.00     0.000 HD
ATOM     16   O  IDS F   1      -9.024  50.509 171.9060  0.00  0.00     0.000 OA
ATOM     17   O  IDS F   1      -7.703  49.495 170.6400  0.00  0.00     0.000 OA
ATOM     18   C  IDS F   1      -8.712  49.477 171.3270  0.00  0.00     0.000 C
ENDROOT
BRANCH 1 19
ATOM     19  O4  SGN F   2     -12.446  47.869 173.4490  0.00  0.00     0.000 O
BRANCH 19 23
ATOM     20  C1  SGN F   2     -16.583  47.830 173.9730  0.00  0.00     0.000 C
ATOM     21  C2  SGN F   2     -15.814  46.789 174.7710  0.00  0.00     0.000 C
ATOM     22  C3  SGN F   2     -14.350  47.212 174.9570  0.00  0.00     0.000 C
ATOM     23  C4  SGN F   2     -13.780  47.414 173.5160  0.00  0.00     0.000 C
ATOM     24  C5  SGN F   2     -14.616  48.472 172.8760  0.00  0.00     0.000 C
ATOM     25  O5  SGN F   2     -15.933  48.040 172.7500  0.00  0.00     0.000 O
ATOM     26   N  SGN F   2     -16.557  46.496 176.0200  0.00  0.00     0.000 N
ATOM     28  HD  SGN F   2     -16.348  46.406 176.8550  0.00  0.00     0.000 HD
ATOM     28   S  SGN F   2     -17.822  45.401 175.9310  0.00  0.00     0.000 S
ATOM     29   O  SGN F   2     -18.661  45.795 174.8210  0.00  0.00     0.000 OA
ATOM     30   O  SGN F   2     -17.186  44.121 175.7130  0.00  0.00     0.000 OA
ATOM     31   O  SGN F   2     -18.489  45.441 177.1810  0.00  0.00     0.000 OA
ATOM     32   O  SGN F   2     -13.662  46.163 175.6260  0.00  0.00     0.000 O
ATOM     34  HD  SGN F   2     -13.452  46.072 176.4610  0.00  0.00     0.000 HD
ATOM     34   C  SGN F   2     -14.150  48.813 171.5000  0.00  0.00     0.000 C
ATOM     35   O  SGN F   2     -14.132  47.608 170.8130  0.00  0.00     0.000 O
ATOM     36   S  SGN F   2     -13.907  47.404 169.3180  0.00  0.00     0.000 S
ATOM     37   O  SGN F   2     -12.805  46.479 169.2340  0.00  0.00     0.000 OA
ATOM     38   O  SGN F   2     -15.167  46.884 168.8340  0.00  0.00     0.000 OA
ATOM     39   O  SGN F   2     -13.591  48.710 168.7520  0.00  0.00     0.000 OA
BRANCH 20 40
ATOM     40  O4  IDS F   3     -16.700  49.037 174.6770  0.00  0.00     0.000 O
BRANCH 40 44
ATOM     41  C1  IDS F   3     -17.765  52.313 175.2510  0.00  0.00     0.000 C
ATOM     42  C2  IDS F   3     -17.409  51.421 176.4140  0.00  0.00     0.000 C
ATOM     43  C3  IDS F   3     -18.117  50.014 176.3410  0.00  0.00     0.000 C
ATOM     44  C4  IDS F   3     -18.043  49.418 174.9490  0.00  0.00     0.000 C
ATOM     45  C5  IDS F   3     -18.505  50.461 173.9320  0.00  0.00     0.000 C
ATOM     46  O5  IDS F   3     -17.682  51.604 174.0060  0.00  0.00     0.000 O
ATOM     47   O  IDS F   3     -15.119  50.569 178.5360  0.00  0.00     0.000 OA
ATOM     48   O  IDS F   3     -13.727  51.781 177.0560  0.00  0.00     0.000 OA
ATOM     49   O  IDS F   3     -15.613  52.826 178.1290  0.00  0.00     0.000 OA
ATOM     50   O  IDS F   3     -15.986  51.263 176.4480  0.00  0.00     0.000 O
ATOM     51   S  IDS F   3     -15.048  51.636 177.6050  0.00  0.00     0.000 S
ATOM     52   O  IDS F   3     -19.498  50.158 176.6590  0.00  0.00     0.000 O
ATOM     54  HD  IDS F   3     -18.795  50.601 176.9050  0.00  0.00     0.000 HD
ATOM     54   C  IDS F   3     -18.607  49.962 172.4870  0.00  0.00     0.000 C
ATOM     55   O  IDS F   3     -17.710  50.178 171.6750  0.00  0.00     0.000 OA
ATOM     56   O  IDS F   3     -19.591  49.319 172.0980  0.00  0.00     0.000 OA
BRANCH 41 57
ATOM     57  O4  SGN F   4     -19.036  52.852 175.4720  0.00  0.00     0.000 O
BRANCH 57 61
ATOM     58  C1  SGN F   4     -21.104  55.902 173.6920  0.00  0.00     0.000 C
ATOM     59  C2  SGN F   4     -21.576  54.477 173.3600  0.00  0.00     0.000 C
ATOM     60  C3  SGN F   4     -21.030  53.466 174.3530  0.00  0.00     0.000 C
ATOM     61  C4  SGN F   4     -19.513  53.631 174.4260  0.00  0.00     0.000 C
ATOM     62  C5  SGN F   4     -19.153  55.104 174.7020  0.00  0.00     0.000 C
ATOM     63  O5  SGN F   4     -19.705  55.941 173.7320  0.00  0.00     0.000 O
ATOM     64   N  SGN F   4     -23.023  54.420 173.2860  0.00  0.00     0.000 N
ATOM     66  HD  SGN F   4     -22.311  54.842 173.0350  0.00  0.00     0.000 HD
ATOM     66   S  SGN F   4     -23.721  54.786 171.8590  0.00  0.00     0.000 S
ATOM     67   O  SGN F   4     -23.504  56.207 171.6600  0.00  0.00     0.000 OA
ATOM     68   O  SGN F   4     -23.082  53.984 170.8180  0.00  0.00     0.000 OA
ATOM     69   O  SGN F   4     -25.113  54.464 172.0790  0.00  0.00     0.000 OA
ATOM     70   O  SGN F   4     -21.307  52.149 173.8980  0.00  0.00     0.000 O
ATOM     72  HD  SGN F   4     -20.595  52.572 173.6460  0.00  0.00     0.000 HD
ATOM     72   C  SGN F   4     -17.676  55.400 174.6670  0.00  0.00     0.000 C
ATOM     73   O  SGN F   4     -17.210  55.059 173.3820  0.00  0.00     0.000 O
ATOM     74   S  SGN F   4     -16.021  55.741 172.6440  0.00  0.00     0.000 S
ATOM     75   O  SGN F   4     -15.053  56.130 173.6150  0.00  0.00     0.000 OA
ATOM     76   O  SGN F   4     -15.483  54.763 171.7000  0.00  0.00     0.000 OA
ATOM     77   O  SGN F   4     -16.606  56.879 172.0500  0.00  0.00     0.000 OA
BRANCH 58 78
ATOM     78  O4  IDS F   5     -21.667  56.345 174.9030  0.00  0.00     0.000 O
BRANCH 78 82
ATOM     79  C1  IDS F   5     -23.001  58.111 177.5960  0.00  0.00     0.000 C
ATOM     80  C2  IDS F   5     -23.883  57.239 176.7130  0.00  0.00     0.000 C
ATOM     81  C3  IDS F   5     -23.709  57.569 175.2290  0.00  0.00     0.000 C
ATOM     82  C4  IDS F   5     -22.213  57.632 174.8520  0.00  0.00     0.000 C
ATOM     83  C5  IDS F   5     -21.470  58.539 175.8340  0.00  0.00     0.000 C
ATOM     84  O5  IDS F   5     -21.665  58.097 177.1620  0.00  0.00     0.000 O
ATOM     85   O  IDS F   5     -23.548  59.406 177.6180  0.00  0.00     0.000 OA
ATOM     86   O  IDS F   5     -23.500  55.905 176.8960  0.00  0.00     0.000 O
ATOM     87   S  IDS F   5     -24.307  54.615 176.5350  0.00  0.00     0.000 S
ATOM     88   O  IDS F   5     -25.123  54.927 175.3920  0.00  0.00     0.000 OA
ATOM     89   O  IDS F   5     -23.325  53.596 176.2430  0.00  0.00     0.000 OA
ATOM     90   O  IDS F   5     -25.103  54.339 177.7020  0.00  0.00     0.000 OA
ATOM     91   O  IDS F   5     -24.297  58.831 174.9860  0.00  0.00     0.000 O
ATOM     93  HD  IDS F   5     -23.594  59.336 174.9470  0.00  0.00     0.000 HD
ATOM     93   O  IDS F   5     -19.151  58.294 176.2890  0.00  0.00     0.000 OA
ATOM     94   O  IDS F   5     -19.619  59.241 174.5050  0.00  0.00     0.000 OA
ATOM     95   C  IDS F   5     -19.993  58.701 175.5290  0.00  0.00     0.000 C
ENDBRANCH 78 82
ENDBRANCH 58 78
ENDBRANCH 57 61
ENDBRANCH 41 57
ENDBRANCH 40 44
ENDBRANCH 20 40
ENDBRANCH 19 23
ENDBRANCH 1 19
TORSDOF 8
ENDMDL
MODEL 60
REMARK VINA RESULT:      -5.5      4.009     12.761
FFDIST PL LJ 2322 74 36 -1
ROOT
ATOM      1  C1  IDS F   1     -19.963  48.998 172.5950  0.00  0.00     0.000 C
ATOM      2  C2  IDS F   1     -19.184  49.876 173.5890  0.00  0.00     0.000 C
ATOM      3  C3  IDS F   1     -18.814  51.265 173.0150  0.00  0.00     0.000 C
ATOM      4  C4  IDS F   1     -19.912  51.888 172.1220  0.00  0.00     0.000 C
ATOM      5  C5  IDS F   1     -20.579  50.806 171.2640  0.00  0.00     0.000 C
ATOM      6  O5  IDS F   1     -21.016  49.758 172.0650  0.00  0.00     0.000 O
ATOM      7   S  IDS F   1     -19.466  50.579 176.1820  0.00  0.00     0.000 S
ATOM      8   O  IDS F   1     -18.677  51.746 175.9280  0.00  0.00     0.000 OA
ATOM      9   O  IDS F   1     -20.625  50.896 176.9660  0.00  0.00     0.000 OA
ATOM     10   O  IDS F   1     -18.700  49.478 176.7190  0.00  0.00     0.000 OA
ATOM     11   O  IDS F   1     -19.958  50.098 174.7500  0.00  0.00     0.000 O
ATOM     12   O  IDS F   1     -17.622  51.140 172.2430  0.00  0.00     0.000 O
ATOM     14  HD  IDS F   1     -17.398  51.586 171.5360  0.00  0.00     0.000 HD
ATOM     14   O  IDS F   1     -20.867  52.471 172.9740  0.00  0.00     0.000 O
ATOM     16  HD  IDS F   1     -20.643  52.916 172.2660  0.00  0.00     0.000 HD
ATOM     16   O  IDS F   1     -22.716  50.566 170.2440  0.00  0.00     0.000 OA
ATOM     17   O  IDS F   1     -21.661  52.300 169.7360  0.00  0.00     0.000 OA
ATOM     18   C  IDS F   1     -21.714  51.256 170.3670  0.00  0.00     0.000 C
ENDROOT
BRANCH 1 19
ATOM     19  O4  SGN F   2     -20.511  47.922 173.2770  0.00  0.00     0.000 O
BRANCH 19 23
ATOM     20  C1  SGN F   2     -18.199  44.492 172.7490  0.00  0.00     0.000 C
ATOM     21  C2  SGN F   2     -19.199  44.782 171.6410  0.00  0.00     0.000 C
ATOM     22  C3  SGN F   2     -19.582  46.269 171.6240  0.00  0.00     0.000 C
ATOM     23  C4  SGN F   2     -20.148  46.578 173.0470  0.00  0.00     0.000 C
ATOM     24  C5  SGN F   2     -19.053  46.268 174.0130  0.00  0.00     0.000 C
ATOM     25  O5  SGN F   2     -18.736  44.914 173.9720  0.00  0.00     0.000 O
ATOM     26   N  SGN F   2     -18.670  44.244 170.3640  0.00  0.00     0.000 N
ATOM     28  HD  SGN F   2     -18.606  44.537 169.5520  0.00  0.00     0.000 HD
ATOM     28   S  SGN F   2     -18.899  42.613 170.0560  0.00  0.00     0.000 S
ATOM     29   O  SGN F   2     -18.469  41.885 171.2290  0.00  0.00     0.000 OA
ATOM     30   O  SGN F   2     -20.318  42.481 169.8140  0.00  0.00     0.000 OA
ATOM     31   O  SGN F   2     -18.145  42.306 168.8960  0.00  0.00     0.000 OA
ATOM     32   O  SGN F   2     -20.584  46.462 170.6330  0.00  0.00     0.000 O
ATOM     34  HD  SGN F   2     -20.520  46.754 169.8200  0.00  0.00     0.000 HD
ATOM     34   C  SGN F   2     -19.434  46.570 175.4240  0.00  0.00     0.000 C
ATOM     35   O  SGN F   2     -20.605  45.860 175.6440  0.00  0.00     0.000 O
ATOM     36   S  SGN F   2     -21.327  45.666 176.9730  0.00  0.00     0.000 S
ATOM     37   O  SGN F   2     -22.671  46.128 176.7340  0.00  0.00     0.000 OA
ATOM     38   O  SGN F   2     -21.217  44.248 177.2370  0.00  0.00     0.000 OA
ATOM     39   O  SGN F   2     -20.622  46.471 177.9640  0.00  0.00     0.000 OA
BRANCH 20 40
ATOM     40  O4  IDS F   3     -16.969  45.122 172.5130  0.00  0.00     0.000 O
BRANCH 40 44
ATOM     41  C1  IDS F   3     -13.596  46.026 172.5510  0.00  0.00     0.000 C
ATOM     42  C2  IDS F   3     -14.343  45.953 171.2420  0.00  0.00     0.000 C
ATOM     43  C3  IDS F   3     -15.133  44.600 171.0670  0.00  0.00     0.000 C
ATOM     44  C4  IDS F   3     -15.886  44.221 172.3290  0.00  0.00     0.000 C
ATOM     45  C5  IDS F   3     -14.933  44.298 173.5220  0.00  0.00     0.000 C
ATOM     46  O5  IDS F   3     -14.423  45.607 173.6470  0.00  0.00     0.000 O
ATOM     47   O  IDS F   3     -15.952  47.613 168.9770  0.00  0.00     0.000 OA
ATOM     48   O  IDS F   3     -15.937  49.299 170.6380  0.00  0.00     0.000 OA
ATOM     49   O  IDS F   3     -13.884  48.366 169.7900  0.00  0.00     0.000 OA
ATOM     50   O  IDS F   3     -15.237  47.068 171.1650  0.00  0.00     0.000 O
ATOM     51   S  IDS F   3     -15.255  48.159 170.0850  0.00  0.00     0.000 S
ATOM     52   O  IDS F   3     -14.217  43.544 170.7950  0.00  0.00     0.000 O
ATOM     54  HD  IDS F   3     -14.193  44.393 170.6250  0.00  0.00     0.000 HD
ATOM     54   C  IDS F   3     -15.517  43.818 174.8540  0.00  0.00     0.000 C
ATOM     55   O  IDS F   3     -15.953  44.615 175.6820  0.00  0.00     0.000 OA
ATOM     56   O  IDS F   3     -15.578  42.612 175.1310  0.00  0.00     0.000 OA
BRANCH 41 57
ATOM     57  O4  SGN F   4     -12.429  45.265 172.4440  0.00  0.00     0.000 O
BRANCH 57 61
ATOM     58  C1  SGN F   4      -8.694  46.787 173.1400  0.00  0.00     0.000 C
ATOM     59  C2  SGN F   4      -8.975  45.389 173.7130  0.00  0.00     0.000 C
ATOM     60  C3  SGN F   4     -10.202  44.763 173.0740  0.00  0.00     0.000 C
ATOM     61  C4  SGN F   4     -11.365  45.745 173.1980  0.00  0.00     0.000 C
ATOM     62  C5  SGN F   4     -10.954  47.125 172.6490  0.00  0.00     0.000 C
ATOM     63  O5  SGN F   4      -9.820  47.603 173.3050  0.00  0.00     0.000 O
ATOM     64   N  SGN F   4      -7.812  44.534 173.5760  0.00  0.00     0.000 N
ATOM     66  HD  SGN F   4      -8.104  45.309 173.8300  0.00  0.00     0.000 HD
ATOM     66   S  SGN F   4      -6.689  44.593 174.7570  0.00  0.00     0.000 S
ATOM     67   O  SGN F   4      -6.068  45.900 174.6560  0.00  0.00     0.000 OA
ATOM     68   O  SGN F   4      -7.365  44.405 176.0400  0.00  0.00     0.000 OA
ATOM     69   O  SGN F   4      -5.785  43.521 174.4080  0.00  0.00     0.000 OA
ATOM     70   O  SGN F   4     -10.554  43.576 173.7710  0.00  0.00     0.000 O
ATOM     72  HD  SGN F   4     -10.846  44.351 174.0250  0.00  0.00     0.000 HD
ATOM     72   C  SGN F   4     -11.989  48.204 172.8410  0.00  0.00     0.000 C
ATOM     73   O  SGN F   4     -12.219  48.324 174.2260  0.00  0.00     0.000 O
ATOM     74   S  SGN F   4     -12.639  49.630 174.9600  0.00  0.00     0.000 S
ATOM     75   O  SGN F   4     -13.467  50.392 174.0860  0.00  0.00     0.000 OA
ATOM     76   O  SGN F   4     -13.349  49.232 176.1740  0.00  0.00     0.000 OA
ATOM     77   O  SGN F   4     -11.415  50.296 175.1800  0.00  0.00     0.000 OA
BRANCH 58 78
ATOM     78  O4  IDS F   5      -8.312  46.704 171.7880  0.00  0.00     0.000 O
BRANCH 78 82
ATOM     79  C1  IDS F   5      -7.056  47.178 168.5710  0.00  0.00     0.000 C
ATOM     80  C2  IDS F   5      -6.499  46.092 169.4800  0.00  0.00     0.000 C
ATOM     81  C3  IDS F   5      -6.100  46.642 170.8510  0.00  0.00     0.000 C
ATOM     82  C4  IDS F   5      -7.228  47.517 171.4410  0.00  0.00     0.000 C
ATOM     83  C5  IDS F   5      -7.677  48.550 170.4050  0.00  0.00     0.000 C
ATOM     84  O5  IDS F   5      -8.070  47.912 169.2080  0.00  0.00     0.000 O
ATOM     85   O  IDS F   5      -5.986  47.988 168.1520  0.00  0.00     0.000 OA
ATOM     86   O  IDS F   5      -7.504  45.138 169.6850  0.00  0.00     0.000 O
ATOM     87   S  IDS F   5      -7.346  43.672 170.2060  0.00  0.00     0.000 S
ATOM     88   O  IDS F   5      -6.213  43.654 171.0940  0.00  0.00     0.000 OA
ATOM     89   O  IDS F   5      -8.579  43.354 170.8890  0.00  0.00     0.000 OA
ATOM     90   O  IDS F   5      -7.114  42.884 169.0250  0.00  0.00     0.000 OA
ATOM     91   O  IDS F   5      -4.942  47.437 170.6860  0.00  0.00     0.000 O
ATOM     93  HD  IDS F   5      -5.282  48.233 170.7180  0.00  0.00     0.000 HD
ATOM     93   O  IDS F   5      -9.859  49.488 170.4060  0.00  0.00     0.000 OA
ATOM     94   O  IDS F   5      -8.549  50.265 171.8130  0.00  0.00     0.000 OA
ATOM     95   C  IDS F   5      -8.760  49.490 170.9000  0.00  0.00     0.000 C
ENDBRANCH 78 82
ENDBRANCH 58 78
ENDBRANCH 57 61
ENDBRANCH 41 57
ENDBRANCH 40 44
ENDBRANCH 20 40
ENDBRANCH 19 23
ENDBRANCH 1 19
TORSDOF 8
ENDMDL
MODEL 61
REMARK VINA RESULT:      -5.4      4.984      7.394
FFDIST PL LJ 2322 74 36 -1
ROOT
ATOM      1  C1  IDS F   1      -8.558  50.086 171.8410  0.00  0.00     0.000 C
ATOM      2  C2  IDS F   1      -7.245  49.327 172.0990  0.00  0.00     0.000 C
ATOM      3  C3  IDS F   1      -5.987  50.131 171.6910  0.00  0.00     0.000 C
ATOM      4  C4  IDS F   1      -6.084  51.645 171.9950  0.00  0.00     0.000 C
ATOM      5  C5  IDS F   1      -7.501  52.155 171.7110  0.00  0.00     0.000 C
ATOM      6  O5  IDS F   1      -8.436  51.375 172.3790  0.00  0.00     0.000 O
ATOM      7   S  IDS F   1      -6.183  47.944 174.1630  0.00  0.00     0.000 S
ATOM      8   O  IDS F   1      -4.878  48.193 173.6280  0.00  0.00     0.000 OA
ATOM      9   O  IDS F   1      -6.214  48.168 175.5790  0.00  0.00     0.000 OA
ATOM     10   O  IDS F   1      -6.723  46.662 173.7760  0.00  0.00     0.000 OA
ATOM     11   O  IDS F   1      -7.120  49.027 173.4740  0.00  0.00     0.000 O
ATOM     12   O  IDS F   1      -5.768  49.965 170.2930  0.00  0.00     0.000 O
ATOM     14  HD  IDS F   1      -5.433  50.537 169.7350  0.00  0.00     0.000 HD
ATOM     14   O  IDS F   1      -5.781  51.821 173.3570  0.00  0.00     0.000 O
ATOM     16  HD  IDS F   1      -5.446  52.392 172.7990  0.00  0.00     0.000 HD
ATOM     16   O  IDS F   1      -8.819  53.962 172.5280  0.00  0.00     0.000 OA
ATOM     17   O  IDS F   1      -6.957  54.488 171.7300  0.00  0.00     0.000 OA
ATOM     18   C  IDS F   1      -7.766  53.617 172.0080  0.00  0.00     0.000 C
ENDROOT
BRANCH 1 19
ATOM     19  O4  SGN F   2      -9.590  49.439 172.5040  0.00  0.00     0.000 O
BRANCH 19 23
ATOM     20  C1  SGN F   2     -11.325  45.649 172.6410  0.00  0.00     0.000 C
ATOM     21  C2  SGN F   2     -10.313  45.943 173.7370  0.00  0.00     0.000 C
ATOM     22  C3  SGN F   2     -10.157  47.456 173.9460  0.00  0.00     0.000 C
ATOM     23  C4  SGN F   2      -9.733  48.035 172.5580  0.00  0.00     0.000 C
ATOM     24  C5  SGN F   2     -10.827  47.689 171.6040  0.00  0.00     0.000 C
ATOM     25  O5  SGN F   2     -10.934  46.308 171.4680  0.00  0.00     0.000 O
ATOM     26   N  SGN F   2     -10.675  45.165 174.9460  0.00  0.00     0.000 N
ATOM     28  HD  SGN F   2     -10.731  45.334 175.7930  0.00  0.00     0.000 HD
ATOM     28   S  SGN F   2     -10.186  43.564 175.0130  0.00  0.00     0.000 S
ATOM     29   O  SGN F   2     -10.574  42.939 173.7680  0.00  0.00     0.000 OA
ATOM     30   O  SGN F   2      -8.751  43.624 175.1750  0.00  0.00     0.000 OA
ATOM     31   O  SGN F   2     -10.811  42.992 176.1490  0.00  0.00     0.000 OA
ATOM     32   O  SGN F   2      -9.135  47.671 174.9130  0.00  0.00     0.000 O
ATOM     34  HD  SGN F   2      -9.192  47.840 175.7600  0.00  0.00     0.000 HD
ATOM     34   C  SGN F   2     -10.583  48.230 170.2350  0.00  0.00     0.000 C
ATOM     35   O  SGN F   2      -9.335  47.748 169.8700  0.00  0.00     0.000 O
ATOM     36   S  SGN F   2      -8.676  47.848 168.4980  0.00  0.00     0.000 S
ATOM     37   O  SGN F   2      -7.404  48.479 168.7450  0.00  0.00     0.000 OA
ATOM     38   O  SGN F   2      -8.589  46.477 168.0430  0.00  0.00     0.000 OA
ATOM     39   O  SGN F   2      -9.554  48.655 167.6600  0.00  0.00     0.000 OA
BRANCH 20 40
ATOM     40  O4  IDS F   3     -12.618  46.042 173.0130  0.00  0.00     0.000 O
BRANCH 40 44
ATOM     41  C1  IDS F   3     -15.923  46.230 174.1260  0.00  0.00     0.000 C
ATOM     42  C2  IDS F   3     -14.890  45.503 174.9500  0.00  0.00     0.000 C
ATOM     43  C3  IDS F   3     -14.055  44.467 174.1030  0.00  0.00     0.000 C
ATOM     44  C4  IDS F   3     -13.611  45.053 172.7760  0.00  0.00     0.000 C
ATOM     45  C5  IDS F   3     -14.817  45.681 172.0780  0.00  0.00     0.000 C
ATOM     46  O5  IDS F   3     -15.367  46.697 172.8870  0.00  0.00     0.000 O
ATOM     47   O  IDS F   3     -12.827  45.690 177.4370  0.00  0.00     0.000 OA
ATOM     48   O  IDS F   3     -13.262  48.007 177.2270  0.00  0.00     0.000 OA
ATOM     49   O  IDS F   3     -15.042  46.437 177.6410  0.00  0.00     0.000 OA
ATOM     50   O  IDS F   3     -14.023  46.471 175.5510  0.00  0.00     0.000 O
ATOM     51   S  IDS F   3     -13.774  46.674 177.0530  0.00  0.00     0.000 S
ATOM     52   O  IDS F   3     -14.862  43.332 173.8080  0.00  0.00     0.000 O
ATOM     54  HD  IDS F   3     -14.862  43.888 174.4720  0.00  0.00     0.000 HD
ATOM     54   C  IDS F   3     -14.552  46.203 170.6620  0.00  0.00     0.000 C
ATOM     55   O  IDS F   3     -14.337  47.395 170.4550  0.00  0.00     0.000 OA
ATOM     56   O  IDS F   3     -14.535  45.439 169.6890  0.00  0.00     0.000 OA
BRANCH 41 57
ATOM     57  O4  SGN F   4     -17.019  45.384 173.9320  0.00  0.00     0.000 O
BRANCH 57 61
ATOM     58  C1  SGN F   4     -20.928  46.586 174.0640  0.00  0.00     0.000 C
ATOM     59  C2  SGN F   4     -20.536  45.679 172.8870  0.00  0.00     0.000 C
ATOM     60  C3  SGN F   4     -19.213  44.978 173.1420  0.00  0.00     0.000 C
ATOM     61  C4  SGN F   4     -18.170  46.033 173.5050  0.00  0.00     0.000 C
ATOM     62  C5  SGN F   4     -18.691  46.921 174.6530  0.00  0.00     0.000 C
ATOM     63  O5  SGN F   4     -19.907  47.512 174.3110  0.00  0.00     0.000 O
ATOM     64   N  SGN F   4     -21.592  44.729 172.5970  0.00  0.00     0.000 N
ATOM     66  HD  SGN F   4     -21.399  45.560 172.7470  0.00  0.00     0.000 HD
ATOM     66   S  SGN F   4     -22.784  45.209 171.5920  0.00  0.00     0.000 S
ATOM     67   O  SGN F   4     -23.532  46.222 172.3130  0.00  0.00     0.000 OA
ATOM     68   O  SGN F   4     -22.171  45.742 170.3780  0.00  0.00     0.000 OA
ATOM     69   O  SGN F   4     -23.548  44.000 171.3830  0.00  0.00     0.000 OA
ATOM     70   O  SGN F   4     -18.781  44.323 171.9580  0.00  0.00     0.000 O
ATOM     72  HD  SGN F   4     -18.589  45.154 172.1090  0.00  0.00     0.000 HD
ATOM     72   C  SGN F   4     -17.790  48.076 175.0030  0.00  0.00     0.000 C
ATOM     73   O  SGN F   4     -17.657  48.871 173.8480  0.00  0.00     0.000 O
ATOM     74   S  SGN F   4     -17.423  50.410 173.8350  0.00  0.00     0.000 S
ATOM     75   O  SGN F   4     -16.629  50.754 174.9670  0.00  0.00     0.000 OA
ATOM     76   O  SGN F   4     -16.750  50.732 172.5780  0.00  0.00     0.000 OA
ATOM     77   O  SGN F   4     -18.722  50.945 173.9650  0.00  0.00     0.000 OA
BRANCH 58 78
ATOM     78  O4  IDS F   5     -21.217  45.820 175.2090  0.00  0.00     0.000 O
BRANCH 78 82
ATOM     79  C1  IDS F   5     -22.303  44.555 178.2700  0.00  0.00     0.000 C
ATOM     80  C2  IDS F   5     -22.809  43.976 176.9560  0.00  0.00     0.000 C
ATOM     81  C3  IDS F   5     -23.347  45.062 176.0230  0.00  0.00     0.000 C
ATOM     82  C4  IDS F   5     -22.351  46.237 175.9140  0.00  0.00     0.000 C
ATOM     83  C5  IDS F   5     -21.939  46.696 177.3140  0.00  0.00     0.000 C
ATOM     84  O5  IDS F   5     -21.408  45.616 178.0540  0.00  0.00     0.000 O
ATOM     85   O  IDS F   5     -23.418  44.936 179.0370  0.00  0.00     0.000 OA
ATOM     86   O  IDS F   5     -21.731  43.360 176.3080  0.00  0.00     0.000 O
ATOM     87   S  IDS F   5     -21.778  42.312 175.1480  0.00  0.00     0.000 S
ATOM     88   O  IDS F   5     -22.958  42.586 174.3720  0.00  0.00     0.000 OA
ATOM     89   O  IDS F   5     -20.566  42.504 174.3840  0.00  0.00     0.000 OA
ATOM     90   O  IDS F   5     -21.855  41.035 175.8070  0.00  0.00     0.000 OA
ATOM     91   O  IDS F   5     -24.564  45.540 176.5600  0.00  0.00     0.000 O
ATOM     93  HD  IDS F   5     -24.306  46.289 176.9110  0.00  0.00     0.000 HD
ATOM     93   O  IDS F   5     -19.863  47.769 177.7440  0.00  0.00     0.000 OA
ATOM     94   O  IDS F   5     -21.331  48.963 176.8960  0.00  0.00     0.000 OA
ATOM     95   C  IDS F   5     -20.987  47.877 177.3220  0.00  0.00     0.000 C
ENDBRANCH 78 82
ENDBRANCH 58 78
ENDBRANCH 57 61
ENDBRANCH 41 57
ENDBRANCH 40 44
ENDBRANCH 20 40
ENDBRANCH 19 23
ENDBRANCH 1 19
TORSDOF 8
ENDMDL
MODEL 62
REMARK VINA RESULT:      -5.4      5.115     11.569
FFDIST PL LJ 2322 74 36 -1
ROOT
ATOM      1  C1  IDS F   1     -16.666  55.338 172.6010  0.00  0.00     0.000 C
ATOM      2  C2  IDS F   1     -16.166  54.569 173.8350  0.00  0.00     0.000 C
ATOM      3  C3  IDS F   1     -14.772  53.928 173.6300  0.00  0.00     0.000 C
ATOM      4  C4  IDS F   1     -13.795  54.800 172.8070  0.00  0.00     0.000 C
ATOM      5  C5  IDS F   1     -14.540  55.506 171.6690  0.00  0.00     0.000 C
ATOM      6  O5  IDS F   1     -15.641  56.192 172.1670  0.00  0.00     0.000 O
ATOM      7   S  IDS F   1     -15.988  55.069 176.4840  0.00  0.00     0.000 S
ATOM      8   O  IDS F   1     -14.947  54.090 176.5760  0.00  0.00     0.000 OA
ATOM      9   O  IDS F   1     -15.647  56.257 177.2120  0.00  0.00     0.000 OA
ATOM     10   O  IDS F   1     -17.292  54.548 176.8220  0.00  0.00     0.000 OA
ATOM     11   O  IDS F   1     -16.063  55.442 174.9420  0.00  0.00     0.000 O
ATOM     12   O  IDS F   1     -14.935  52.680 172.9600  0.00  0.00     0.000 O
ATOM     14  HD  IDS F   1     -14.395  52.305 172.3960  0.00  0.00     0.000 HD
ATOM     14   O  IDS F   1     -13.249  55.758 173.6810  0.00  0.00     0.000 O
ATOM     16  HD  IDS F   1     -12.710  55.383 173.1170  0.00  0.00     0.000 HD
ATOM     16   O  IDS F   1     -14.186  57.510 170.4320  0.00  0.00     0.000 OA
ATOM     17   O  IDS F   1     -12.594  56.154 170.4310  0.00  0.00     0.000 OA
ATOM     18   C  IDS F   1     -13.721  56.440 170.8000  0.00  0.00     0.000 C
ENDROOT
BRANCH 1 19
ATOM     19  O4  SGN F   2     -17.751  56.121 172.9670  0.00  0.00     0.000 O
BRANCH 19 23
ATOM     20  C1  SGN F   2     -21.241  54.543 171.3180  0.00  0.00     0.000 C
ATOM     21  C2  SGN F   2     -20.498  55.540 170.4430  0.00  0.00     0.000 C
ATOM     22  C3  SGN F   2     -19.021  55.634 170.8510  0.00  0.00     0.000 C
ATOM     23  C4  SGN F   2     -19.023  56.036 172.3600  0.00  0.00     0.000 C
ATOM     24  C5  SGN F   2     -19.760  54.959 173.0840  0.00  0.00     0.000 C
ATOM     25  O5  SGN F   2     -21.085  54.909 172.6610  0.00  0.00     0.000 O
ATOM     26   N  SGN F   2     -20.748  55.209 169.0190  0.00  0.00     0.000 N
ATOM     28  HD  SGN F   2     -20.260  55.144 168.3070  0.00  0.00     0.000 HD
ATOM     28   S  SGN F   2     -22.172  55.763 168.3320  0.00  0.00     0.000 S
ATOM     29   O  SGN F   2     -23.253  55.403 169.2220  0.00  0.00     0.000 OA
ATOM     30   O  SGN F   2     -21.997  57.194 168.2270  0.00  0.00     0.000 OA
ATOM     31   O  SGN F   2     -22.272  55.159 167.0530  0.00  0.00     0.000 OA
ATOM     32   O  SGN F   2     -18.402  56.644 170.0630  0.00  0.00     0.000 O
ATOM     34  HD  SGN F   2     -17.914  56.579 169.3500  0.00  0.00     0.000 HD
ATOM     34   C  SGN F   2     -19.796  55.183 174.5590  0.00  0.00     0.000 C
ATOM     35   O  SGN F   2     -20.334  56.450 174.7220  0.00  0.00     0.000 O
ATOM     36   S  SGN F   2     -20.761  57.107 176.0310  0.00  0.00     0.000 S
ATOM     37   O  SGN F   2     -20.035  58.351 176.0720  0.00  0.00     0.000 OA
ATOM     38   O  SGN F   2     -22.195  57.252 175.9080  0.00  0.00     0.000 OA
ATOM     39   O  SGN F   2     -20.385  56.199 177.1070  0.00  0.00     0.000 OA
BRANCH 20 40
ATOM     40  O4  IDS F   3     -20.783  53.234 171.1130  0.00  0.00     0.000 O
BRANCH 40 44
ATOM     41  C1  IDS F   3     -21.074  49.805 170.5190  0.00  0.00     0.000 C
ATOM     42  C2  IDS F   3     -22.245  50.718 170.2560  0.00  0.00     0.000 C
ATOM     43  C3  IDS F   3     -22.561  51.670 171.4720  0.00  0.00     0.000 C
ATOM     44  C4  IDS F   3     -21.300  52.291 172.0430  0.00  0.00     0.000 C
ATOM     45  C5  IDS F   3     -20.270  51.190 172.2950  0.00  0.00     0.000 C
ATOM     46  O5  IDS F   3     -19.970  50.525 171.0880  0.00  0.00     0.000 O
ATOM     47   O  IDS F   3     -23.878  52.412 168.0320  0.00  0.00     0.000 OA
ATOM     48   O  IDS F   3     -21.942  51.994 166.7370  0.00  0.00     0.000 OA
ATOM     49   O  IDS F   3     -23.252  50.185 167.6400  0.00  0.00     0.000 OA
ATOM     50   O  IDS F   3     -21.970  51.485 169.0790  0.00  0.00     0.000 O
ATOM     51   S  IDS F   3     -22.802  51.521 167.7890  0.00  0.00     0.000 S
ATOM     52   O  IDS F   3     -23.167  50.921 172.5200  0.00  0.00     0.000 O
ATOM     54  HD  IDS F   3     -23.170  50.824 171.6600  0.00  0.00     0.000 HD
ATOM     54   C  IDS F   3     -18.985  51.647 172.9920  0.00  0.00     0.000 C
ATOM     55   O  IDS F   3     -17.962  51.880 172.3520  0.00  0.00     0.000 OA
ATOM     56   O  IDS F   3     -18.942  51.805 174.2200  0.00  0.00     0.000 OA
BRANCH 41 57
ATOM     57  O4  SGN F   4     -21.500  48.754 171.3360  0.00  0.00     0.000 O
BRANCH 57 61
ATOM     58  C1  SGN F   4     -21.149  44.677 171.4110  0.00  0.00     0.000 C
ATOM     59  C2  SGN F   4     -19.834  45.472 171.4100  0.00  0.00     0.000 C
ATOM     60  C3  SGN F   4     -20.064  46.926 171.7830  0.00  0.00     0.000 C
ATOM     61  C4  SGN F   4     -21.148  47.493 170.8690  0.00  0.00     0.000 C
ATOM     62  C5  SGN F   4     -22.395  46.588 170.9020  0.00  0.00     0.000 C
ATOM     63  O5  SGN F   4     -22.069  45.280 170.5440  0.00  0.00     0.000 O
ATOM     64   N  SGN F   4     -18.857  44.849 172.2820  0.00  0.00     0.000 N
ATOM     66  HD  SGN F   4     -19.431  44.723 171.6460  0.00  0.00     0.000 HD
ATOM     66   S  SGN F   4     -17.930  43.665 171.6510  0.00  0.00     0.000 S
ATOM     67   O  SGN F   4     -18.819  42.544 171.4090  0.00  0.00     0.000 OA
ATOM     68   O  SGN F   4     -17.329  44.164 170.4150  0.00  0.00     0.000 OA
ATOM     69   O  SGN F   4     -16.974  43.398 172.7020  0.00  0.00     0.000 OA
ATOM     70   O  SGN F   4     -18.873  47.670 171.5660  0.00  0.00     0.000 O
ATOM     72  HD  SGN F   4     -19.448  47.544 170.9300  0.00  0.00     0.000 HD
ATOM     72   C  SGN F   4     -23.480  46.989 169.9360  0.00  0.00     0.000 C
ATOM     73   O  SGN F   4     -22.927  46.943 168.6410  0.00  0.00     0.000 O
ATOM     74   S  SGN F   4     -23.713  46.622 167.3360  0.00  0.00     0.000 S
ATOM     75   O  SGN F   4     -25.037  47.134 167.4700  0.00  0.00     0.000 OA
ATOM     76   O  SGN F   4     -22.993  47.256 166.2330  0.00  0.00     0.000 OA
ATOM     77   O  SGN F   4     -23.734  45.213 167.2980  0.00  0.00     0.000 OA
BRANCH 58 78
ATOM     78  O4  IDS F   5     -21.666  44.568 172.7150  0.00  0.00     0.000 O
BRANCH 78 82
ATOM     79  C1  IDS F   5     -23.292  43.679 175.6680  0.00  0.00     0.000 C
ATOM     80  C2  IDS F   5     -21.774  43.628 175.5600  0.00  0.00     0.000 C
ATOM     81  C3  IDS F   5     -21.314  42.831 174.3380  0.00  0.00     0.000 C
ATOM     82  C4  IDS F   5     -22.075  43.279 173.0710  0.00  0.00     0.000 C
ATOM     83  C5  IDS F   5     -23.581  43.281 173.3460  0.00  0.00     0.000 C
ATOM     84  O5  IDS F   5     -23.879  44.095 174.4620  0.00  0.00     0.000 O
ATOM     85   O  IDS F   5     -23.743  42.413 176.0790  0.00  0.00     0.000 OA
ATOM     86   O  IDS F   5     -21.304  44.939 175.4090  0.00  0.00     0.000 O
ATOM     87   S  IDS F   5     -19.851  45.471 175.6340  0.00  0.00     0.000 S
ATOM     88   O  IDS F   5     -18.948  44.395 175.3180  0.00  0.00     0.000 OA
ATOM     89   O  IDS F   5     -19.692  46.595 174.7400  0.00  0.00     0.000 OA
ATOM     90   O  IDS F   5     -19.798  45.823 177.0280  0.00  0.00     0.000 OA
ATOM     91   O  IDS F   5     -21.585  41.464 174.5760  0.00  0.00     0.000 O
ATOM     93  HD  IDS F   5     -22.298  41.351 174.0980  0.00  0.00     0.000 HD
ATOM     93   O  IDS F   5     -25.091  44.676 172.1560  0.00  0.00     0.000 OA
ATOM     94   O  IDS F   5     -24.452  42.981 171.1470  0.00  0.00     0.000 OA
ATOM     95   C  IDS F   5     -24.427  43.671 172.1490  0.00  0.00     0.000 C
ENDBRANCH 78 82
ENDBRANCH 58 78
ENDBRANCH 57 61
ENDBRANCH 41 57
ENDBRANCH 40 44
ENDBRANCH 20 40
ENDBRANCH 19 23
ENDBRANCH 1 19
TORSDOF 8
ENDMDL
MODEL 63
REMARK VINA RESULT:      -5.4      3.225     11.370
FFDIST PL LJ 2322 74 36 -1
ROOT
ATOM      1  C1  IDS F   1     -17.454  56.251 171.4060  0.00  0.00     0.000 C
ATOM      2  C2  IDS F   1     -16.458  55.939 172.5350  0.00  0.00     0.000 C
ATOM      3  C3  IDS F   1     -14.986  55.908 172.0580  0.00  0.00     0.000 C
ATOM      4  C4  IDS F   1     -14.647  56.980 170.9970  0.00  0.00     0.000 C
ATOM      5  C5  IDS F   1     -15.815  57.147 170.0180  0.00  0.00     0.000 C
ATOM      6  O5  IDS F   1     -16.995  57.380 170.7120  0.00  0.00     0.000 O
ATOM      7   S  IDS F   1     -16.043  56.835 175.0500  0.00  0.00     0.000 S
ATOM      8   O  IDS F   1     -14.683  56.396 174.9580  0.00  0.00     0.000 OA
ATOM      9   O  IDS F   1     -16.126  58.147 175.6230  0.00  0.00     0.000 OA
ATOM     10   O  IDS F   1     -16.910  55.876 175.6950  0.00  0.00     0.000 OA
ATOM     11   O  IDS F   1     -16.547  56.922 173.5460  0.00  0.00     0.000 O
ATOM     12   O  IDS F   1     -14.709  54.623 171.5060  0.00  0.00     0.000 O
ATOM     14  HD  IDS F   1     -14.171  54.428 170.8560  0.00  0.00     0.000 HD
ATOM     14   O  IDS F   1     -14.423  58.190 171.6770  0.00  0.00     0.000 O
ATOM     16  HD  IDS F   1     -13.885  57.995 171.0270  0.00  0.00     0.000 HD
ATOM     16   O  IDS F   1     -16.591  58.922 168.6340  0.00  0.00     0.000 OA
ATOM     17   O  IDS F   1     -14.597  58.358 168.3480  0.00  0.00     0.000 OA
ATOM     18   C  IDS F   1     -15.651  58.202 168.9420  0.00  0.00     0.000 C
ENDROOT
BRANCH 1 19
ATOM     19  O4  SGN F   2     -18.685  56.559 171.9630  0.00  0.00     0.000 O
BRANCH 19 23
ATOM     20  C1  SGN F   2     -21.318  53.350 171.5580  0.00  0.00     0.000 C
ATOM     21  C2  SGN F   2     -21.245  54.290 170.3650  0.00  0.00     0.000 C
ATOM     22  C3  SGN F   2     -19.921  55.067 170.3590  0.00  0.00     0.000 C
ATOM     23  C4  SGN F   2     -19.864  55.819 171.7270  0.00  0.00     0.000 C
ATOM     24  C5  SGN F   2     -19.920  54.771 172.7880  0.00  0.00     0.000 C
ATOM     25  O5  SGN F   2     -21.132  54.089 172.7340  0.00  0.00     0.000 O
ATOM     26   N  SGN F   2     -21.541  53.522 169.1320  0.00  0.00     0.000 N
ATOM     28  HD  SGN F   2     -21.195  53.471 168.3400  0.00  0.00     0.000 HD
ATOM     28   S  SGN F   2     -23.152  53.262 168.7480  0.00  0.00     0.000 S
ATOM     29   O  SGN F   2     -23.803  52.752 169.9340  0.00  0.00     0.000 OA
ATOM     30   O  SGN F   2     -23.652  54.561 168.3600  0.00  0.00     0.000 OA
ATOM     31   O  SGN F   2     -23.172  52.354 167.6600  0.00  0.00     0.000 OA
ATOM     32   O  SGN F   2     -19.950  55.991 169.2780  0.00  0.00     0.000 O
ATOM     34  HD  SGN F   2     -19.603  55.940 168.4860  0.00  0.00     0.000 HD
ATOM     34   C  SGN F   2     -19.818  55.344 174.1620  0.00  0.00     0.000 C
ATOM     35   O  SGN F   2     -20.832  56.287 174.2390  0.00  0.00     0.000 O
ATOM     36   S  SGN F   2     -21.294  57.041 175.4820  0.00  0.00     0.000 S
ATOM     37   O  SGN F   2     -21.203  58.433 175.1230  0.00  0.00     0.000 OA
ATOM     38   O  SGN F   2     -22.642  56.566 175.7080  0.00  0.00     0.000 OA
ATOM     39   O  SGN F   2     -20.389  56.676 176.5640  0.00  0.00     0.000 OA
BRANCH 20 40
ATOM     40  O4  IDS F   3     -20.363  52.327 171.4690  0.00  0.00     0.000 O
BRANCH 40 44
ATOM     41  C1  IDS F   3     -19.153  49.059 171.6900  0.00  0.00     0.000 C
ATOM     42  C2  IDS F   3     -20.640  49.313 171.6670  0.00  0.00     0.000 C
ATOM     43  C3  IDS F   3     -21.086  50.410 172.7080  0.00  0.00     0.000 C
ATOM     44  C4  IDS F   3     -20.166  51.615 172.6840  0.00  0.00     0.000 C
ATOM     45  C5  IDS F   3     -18.717  51.140 172.7810  0.00  0.00     0.000 C
ATOM     46  O5  IDS F   3     -18.414  50.290 171.6980  0.00  0.00     0.000 O
ATOM     47   O  IDS F   3     -23.312  49.428 169.8440  0.00  0.00     0.000 OA
ATOM     48   O  IDS F   3     -21.739  49.390 168.0770  0.00  0.00     0.000 OA
ATOM     49   O  IDS F   3     -21.828  47.617 169.7040  0.00  0.00     0.000 OA
ATOM     50   O  IDS F   3     -21.015  49.700 170.3400  0.00  0.00     0.000 O
ATOM     51   S  IDS F   3     -22.028  48.992 169.4280  0.00  0.00     0.000 S
ATOM     52   O  IDS F   3     -21.030  49.869 174.0240  0.00  0.00     0.000 O
ATOM     54  HD  IDS F   3     -21.176  49.505 173.2510  0.00  0.00     0.000 HD
ATOM     54   C  IDS F   3     -17.672  52.256 172.8980  0.00  0.00     0.000 C
ATOM     55   O  IDS F   3     -17.042  52.642 171.9170  0.00  0.00     0.000 OA
ATOM     56   O  IDS F   3     -17.441  52.807 173.9820  0.00  0.00     0.000 OA
BRANCH 41 57
ATOM     57  O4  SGN F   4     -18.854  48.251 172.7900  0.00  0.00     0.000 O
BRANCH 57 61
ATOM     58  C1  SGN F   4     -15.321  46.380 173.6680  0.00  0.00     0.000 C
ATOM     59  C2  SGN F   4     -15.314  47.304 172.4390  0.00  0.00     0.000 C
ATOM     60  C3  SGN F   4     -16.513  48.236 172.4380  0.00  0.00     0.000 C
ATOM     61  C4  SGN F   4     -17.778  47.394 172.5910  0.00  0.00     0.000 C
ATOM     62  C5  SGN F   4     -17.652  46.466 173.8150  0.00  0.00     0.000 C
ATOM     63  O5  SGN F   4     -16.520  45.658 173.7110  0.00  0.00     0.000 O
ATOM     64   N  SGN F   4     -14.068  48.042 172.3600  0.00  0.00     0.000 N
ATOM     66  HD  SGN F   4     -14.432  47.264 172.4680  0.00  0.00     0.000 HD
ATOM     66   S  SGN F   4     -12.814  47.327 171.6020  0.00  0.00     0.000 S
ATOM     67   O  SGN F   4     -12.410  46.221 172.4500  0.00  0.00     0.000 OA
ATOM     68   O  SGN F   4     -13.272  46.872 170.2900  0.00  0.00     0.000 OA
ATOM     69   O  SGN F   4     -11.820  48.375 171.5460  0.00  0.00     0.000 OA
ATOM     70   O  SGN F   4     -16.587  48.919 171.1950  0.00  0.00     0.000 O
ATOM     72  HD  SGN F   4     -16.952  48.141 171.3030  0.00  0.00     0.000 HD
ATOM     72   C  SGN F   4     -18.797  45.501 173.9830  0.00  0.00     0.000 C
ATOM     73   O  SGN F   4     -18.849  44.705 172.8210  0.00  0.00     0.000 O
ATOM     74   S  SGN F   4     -19.349  43.232 172.7590  0.00  0.00     0.000 S
ATOM     75   O  SGN F   4     -20.392  43.070 173.7170  0.00  0.00     0.000 OA
ATOM     76   O  SGN F   4     -19.819  42.995 171.3960  0.00  0.00     0.000 OA
ATOM     77   O  SGN F   4     -18.217  42.480 173.1350  0.00  0.00     0.000 OA
BRANCH 58 78
ATOM     78  O4  IDS F   5     -15.121  47.119 174.8490  0.00  0.00     0.000 O
BRANCH 78 82
ATOM     79  C1  IDS F   5     -14.367  48.311 178.0360  0.00  0.00     0.000 C
ATOM     80  C2  IDS F   5     -13.535  48.717 176.8280  0.00  0.00     0.000 C
ATOM     81  C3  IDS F   5     -13.062  47.503 176.0260  0.00  0.00     0.000 C
ATOM     82  C4  IDS F   5     -14.232  46.533 175.7560  0.00  0.00     0.000 C
ATOM     83  C5  IDS F   5     -14.966  46.231 177.0640  0.00  0.00     0.000 C
ATOM     84  O5  IDS F   5     -15.398  47.428 177.6770  0.00  0.00     0.000 O
ATOM     85   O  IDS F   5     -13.501  47.766 179.0000  0.00  0.00     0.000 OA
ATOM     86   O  IDS F   5     -14.341  49.491 175.9840  0.00  0.00     0.000 O
ATOM     87   S  IDS F   5     -13.887  50.451 174.8360  0.00  0.00     0.000 S
ATOM     88   O  IDS F   5     -12.664  49.920 174.2930  0.00  0.00     0.000 OA
ATOM     89   O  IDS F   5     -14.958  50.452 173.8660  0.00  0.00     0.000 OA
ATOM     90   O  IDS F   5     -13.680  51.722 175.4770  0.00  0.00     0.000 OA
ATOM     91   O  IDS F   5     -12.075  46.831 176.7840  0.00  0.00     0.000 O
ATOM     93  HD  IDS F   5     -12.532  46.164 177.0940  0.00  0.00     0.000 HD
ATOM     93   O  IDS F   5     -17.253  45.591 177.1230  0.00  0.00     0.000 OA
ATOM     94   O  IDS F   5     -15.920  44.101 176.5780  0.00  0.00     0.000 OA
ATOM     95   C  IDS F   5     -16.116  45.252 176.9160  0.00  0.00     0.000 C
ENDBRANCH 78 82
ENDBRANCH 58 78
ENDBRANCH 57 61
ENDBRANCH 41 57
ENDBRANCH 40 44
ENDBRANCH 20 40
ENDBRANCH 19 23
ENDBRANCH 1 19
TORSDOF 8
ENDMDL
MODEL 64
REMARK VINA RESULT:      -5.4      3.060     10.753
FFDIST PL LJ 2322 74 36 -1
ROOT
ATOM      1  C1  IDS F   1     -17.008  56.401 171.5180  0.00  0.00     0.000 C
ATOM      2  C2  IDS F   1     -15.890  56.490 172.5700  0.00  0.00     0.000 C
ATOM      3  C3  IDS F   1     -14.477  56.272 171.9760  0.00  0.00     0.000 C
ATOM      4  C4  IDS F   1     -14.280  56.899 170.5760  0.00  0.00     0.000 C
ATOM      5  C5  IDS F   1     -15.550  56.730 169.7340  0.00  0.00     0.000 C
ATOM      6  O5  IDS F   1     -16.655  57.209 170.4270  0.00  0.00     0.000 O
ATOM      7   S  IDS F   1     -15.229  58.204 174.5510  0.00  0.00     0.000 S
ATOM      8   O  IDS F   1     -13.877  57.741 174.4700  0.00  0.00     0.000 OA
ATOM      9   O  IDS F   1     -15.283  59.635 174.6330  0.00  0.00     0.000 OA
ATOM     10   O  IDS F   1     -15.998  57.545 175.5810  0.00  0.00     0.000 OA
ATOM     11   O  IDS F   1     -15.894  57.767 173.1760  0.00  0.00     0.000 O
ATOM     12   O  IDS F   1     -14.229  54.872 171.8820  0.00  0.00     0.000 O
ATOM     14  HD  IDS F   1     -13.759  54.454 171.2860  0.00  0.00     0.000 HD
ATOM     14   O  IDS F   1     -14.014  58.268 170.7620  0.00  0.00     0.000 O
ATOM     16  HD  IDS F   1     -13.544  57.849 170.1660  0.00  0.00     0.000 HD
ATOM     16   O  IDS F   1     -16.514  57.918 167.9100  0.00  0.00     0.000 OA
ATOM     17   O  IDS F   1     -14.548  57.261 167.6240  0.00  0.00     0.000 OA
ATOM     18   C  IDS F   1     -15.528  57.339 168.3470  0.00  0.00     0.000 C
ENDROOT
BRANCH 1 19
ATOM     19  O4  SGN F   2     -18.180  56.903 172.0630  0.00  0.00     0.000 O
BRANCH 19 23
ATOM     20  C1  SGN F   2     -20.672  53.743 173.1560  0.00  0.00     0.000 C
ATOM     21  C2  SGN F   2     -20.847  54.250 171.7340  0.00  0.00     0.000 C
ATOM     22  C3  SGN F   2     -19.584  54.979 171.2530  0.00  0.00     0.000 C
ATOM     23  C4  SGN F   2     -19.341  56.130 172.2810  0.00  0.00     0.000 C
ATOM     24  C5  SGN F   2     -19.166  55.478 173.6120  0.00  0.00     0.000 C
ATOM     25  O5  SGN F   2     -20.333  54.819 173.9870  0.00  0.00     0.000 O
ATOM     26   N  SGN F   2     -21.302  53.129 170.8770  0.00  0.00     0.000 N
ATOM     28  HD  SGN F   2     -21.088  52.825 170.0950  0.00  0.00     0.000 HD
ATOM     28   S  SGN F   2     -22.937  52.765 170.8800  0.00  0.00     0.000 S
ATOM     29   O  SGN F   2     -23.357  52.664 172.2600  0.00  0.00     0.000 OA
ATOM     30   O  SGN F   2     -23.562  53.873 170.1940  0.00  0.00     0.000 OA
ATOM     31   O  SGN F   2     -23.090  51.556 170.1570  0.00  0.00     0.000 OA
ATOM     32   O  SGN F   2     -19.838  55.509 169.9570  0.00  0.00     0.000 O
ATOM     34  HD  SGN F   2     -19.625  55.205 169.1750  0.00  0.00     0.000 HD
ATOM     34   C  SGN F   2     -18.869  56.461 174.6950  0.00  0.00     0.000 C
ATOM     35   O  SGN F   2     -19.905  57.382 174.6440  0.00  0.00     0.000 O
ATOM     36   S  SGN F   2     -20.194  58.497 175.6440  0.00  0.00     0.000 S
ATOM     37   O  SGN F   2     -20.236  59.700 174.8520  0.00  0.00     0.000 OA
ATOM     38   O  SGN F   2     -21.459  58.124 176.2390  0.00  0.00     0.000 OA
ATOM     39   O  SGN F   2     -19.105  58.495 176.6120  0.00  0.00     0.000 OA
BRANCH 20 40
ATOM     40  O4  IDS F   3     -19.693  52.742 173.2320  0.00  0.00     0.000 O
BRANCH 40 44
ATOM     41  C1  IDS F   3     -18.530  49.628 174.3000  0.00  0.00     0.000 C
ATOM     42  C2  IDS F   3     -19.986  49.984 174.4610  0.00  0.00     0.000 C
ATOM     43  C3  IDS F   3     -20.197  51.390 175.1430  0.00  0.00     0.000 C
ATOM     44  C4  IDS F   3     -19.275  52.443 174.5570  0.00  0.00     0.000 C
ATOM     45  C5  IDS F   3     -17.845  51.905 174.5450  0.00  0.00     0.000 C
ATOM     46  O5  IDS F   3     -17.779  50.730 173.7690  0.00  0.00     0.000 O
ATOM     47   O  IDS F   3     -22.962  49.733 173.2130  0.00  0.00     0.000 OA
ATOM     48   O  IDS F   3     -21.769  48.999 171.3060  0.00  0.00     0.000 OA
ATOM     49   O  IDS F   3     -21.572  47.854 173.4170  0.00  0.00     0.000 OA
ATOM     50   O  IDS F   3     -20.608  49.956 173.1710  0.00  0.00     0.000 O
ATOM     51   S  IDS F   3     -21.794  49.081 172.7420  0.00  0.00     0.000 S
ATOM     52   O  IDS F   3     -19.894  51.297 176.5310  0.00  0.00     0.000 O
ATOM     54  HD  IDS F   3     -20.196  50.719 175.9620  0.00  0.00     0.000 HD
ATOM     54   C  IDS F   3     -16.775  52.907 174.0970  0.00  0.00     0.000 C
ATOM     55   O  IDS F   3     -16.343  52.904 172.9470  0.00  0.00     0.000 OA
ATOM     56   O  IDS F   3     -16.324  53.755 174.8780  0.00  0.00     0.000 OA
BRANCH 41 57
ATOM     57  O4  SGN F   4     -18.036  49.193 175.5330  0.00  0.00     0.000 O
BRANCH 57 61
ATOM     58  C1  SGN F   4     -15.577  46.378 173.8660  0.00  0.00     0.000 C
ATOM     59  C2  SGN F   4     -17.011  45.925 174.1820  0.00  0.00     0.000 C
ATOM     60  C3  SGN F   4     -17.931  47.112 174.4080  0.00  0.00     0.000 C
ATOM     61  C4  SGN F   4     -17.303  48.014 175.4690  0.00  0.00     0.000 C
ATOM     62  C5  SGN F   4     -15.851  48.356 175.0810  0.00  0.00     0.000 C
ATOM     63  O5  SGN F   4     -15.099  47.196 174.8980  0.00  0.00     0.000 O
ATOM     64   N  SGN F   4     -17.516  45.055 173.1380  0.00  0.00     0.000 N
ATOM     66  HD  SGN F   4     -16.855  45.222 173.6720  0.00  0.00     0.000 HD
ATOM     66   S  SGN F   4     -17.183  43.463 173.2560  0.00  0.00     0.000 S
ATOM     67   O  SGN F   4     -15.754  43.335 173.0370  0.00  0.00     0.000 OA
ATOM     68   O  SGN F   4     -17.575  43.012 174.5900  0.00  0.00     0.000 OA
ATOM     69   O  SGN F   4     -17.962  42.882 172.1860  0.00  0.00     0.000 OA
ATOM     70   O  SGN F   4     -19.184  46.661 174.9020  0.00  0.00     0.000 O
ATOM     72  HD  SGN F   4     -18.523  46.828 175.4360  0.00  0.00     0.000 HD
ATOM     72   C  SGN F   4     -15.097  49.139 176.1250  0.00  0.00     0.000 C
ATOM     73   O  SGN F   4     -15.075  48.361 177.2990  0.00  0.00     0.000 O
ATOM     74   S  SGN F   4     -13.947  48.380 178.3720  0.00  0.00     0.000 S
ATOM     75   O  SGN F   4     -13.418  49.701 178.4460  0.00  0.00     0.000 OA
ATOM     76   O  SGN F   4     -14.550  47.962 179.6370  0.00  0.00     0.000 OA
ATOM     77   O  SGN F   4     -12.981  47.493 177.8540  0.00  0.00     0.000 OA
BRANCH 58 78
ATOM     78  O4  IDS F   5     -15.522  47.034 172.6220  0.00  0.00     0.000 O
BRANCH 78 82
ATOM     79  C1  IDS F   5     -14.676  48.415 169.5360  0.00  0.00     0.000 C
ATOM     80  C2  IDS F   5     -15.668  47.264 169.6370  0.00  0.00     0.000 C
ATOM     81  C3  IDS F   5     -15.106  46.096 170.4500  0.00  0.00     0.000 C
ATOM     82  C4  IDS F   5     -14.497  46.594 171.7790  0.00  0.00     0.000 C
ATOM     83  C5  IDS F   5     -13.532  47.749 171.5050  0.00  0.00     0.000 C
ATOM     84  O5  IDS F   5     -14.186  48.783 170.7990  0.00  0.00     0.000 O
ATOM     85   O  IDS F   5     -13.654  48.034 168.6500  0.00  0.00     0.000 OA
ATOM     86   O  IDS F   5     -16.809  47.729 170.3020  0.00  0.00     0.000 O
ATOM     87   S  IDS F   5     -18.234  47.087 170.3280  0.00  0.00     0.000 S
ATOM     88   O  IDS F   5     -18.065  45.663 170.2040  0.00  0.00     0.000 OA
ATOM     89   O  IDS F   5     -18.819  47.458 171.5960  0.00  0.00     0.000 OA
ATOM     90   O  IDS F   5     -18.912  47.646 169.1880  0.00  0.00     0.000 OA
ATOM     91   O  IDS F   5     -14.091  45.475 169.6860  0.00  0.00     0.000 O
ATOM     93  HD  IDS F   5     -13.381  45.787 170.0690  0.00  0.00     0.000 HD
ATOM     93   O  IDS F   5     -13.046  49.414 173.1280  0.00  0.00     0.000 OA
ATOM     94   O  IDS F   5     -12.083  47.598 173.3920  0.00  0.00     0.000 OA
ATOM     95   C  IDS F   5     -12.847  48.289 172.7460  0.00  0.00     0.000 C
ENDBRANCH 78 82
ENDBRANCH 58 78
ENDBRANCH 57 61
ENDBRANCH 41 57
ENDBRANCH 40 44
ENDBRANCH 20 40
ENDBRANCH 19 23
ENDBRANCH 1 19
TORSDOF 8
ENDMDL
MODEL 65
REMARK VINA RESULT:      -5.4      4.540     13.033
FFDIST PL LJ 2322 74 36 -1
ROOT
ATOM      1  C1  IDS F   1     -21.182  45.198 172.7680  0.00  0.00     0.000 C
ATOM      2  C2  IDS F   1     -21.601  44.416 171.5120  0.00  0.00     0.000 C
ATOM      3  C3  IDS F   1     -21.450  42.883 171.6710  0.00  0.00     0.000 C
ATOM      4  C4  IDS F   1     -21.825  42.358 173.0760  0.00  0.00     0.000 C
ATOM      5  C5  IDS F   1     -21.349  43.336 174.1550  0.00  0.00     0.000 C
ATOM      6  O5  IDS F   1     -21.810  44.618 173.8800  0.00  0.00     0.000 O
ATOM      7   S  IDS F   1     -23.721  44.436 169.8380  0.00  0.00     0.000 S
ATOM      8   O  IDS F   1     -23.419  43.084 169.4760  0.00  0.00     0.000 OA
ATOM      9   O  IDS F   1     -25.125  44.607 170.0760  0.00  0.00     0.000 OA
ATOM     10   O  IDS F   1     -23.176  45.408 168.9190  0.00  0.00     0.000 OA
ATOM     11   O  IDS F   1     -22.958  44.671 171.2110  0.00  0.00     0.000 O
ATOM     12   O  IDS F   1     -20.097  42.524 171.4020  0.00  0.00     0.000 O
ATOM     14  HD  IDS F   1     -19.636  41.883 171.7570  0.00  0.00     0.000 HD
ATOM     14   O  IDS F   1     -23.226  42.246 173.1230  0.00  0.00     0.000 O
ATOM     16  HD  IDS F   1     -22.765  41.605 173.4790  0.00  0.00     0.000 HD
ATOM     16   O  IDS F   1     -22.051  43.848 176.3720  0.00  0.00     0.000 OA
ATOM     17   O  IDS F   1     -21.597  41.838 176.0080  0.00  0.00     0.000 OA
ATOM     18   C  IDS F   1     -21.687  42.981 175.5890  0.00  0.00     0.000 C
ENDROOT
BRANCH 1 19
ATOM     19  O4  SGN F   2     -21.631  46.505 172.6550  0.00  0.00     0.000 O
BRANCH 19 23
ATOM     20  C1  SGN F   2     -18.296  48.975 173.0640  0.00  0.00     0.000 C
ATOM     21  C2  SGN F   2     -19.191  48.879 174.2890  0.00  0.00     0.000 C
ATOM     22  C3  SGN F   2     -20.025  47.590 174.2590  0.00  0.00     0.000 C
ATOM     23  C4  SGN F   2     -20.831  47.637 172.9210  0.00  0.00     0.000 C
ATOM     24  C5  SGN F   2     -19.823  47.706 171.8230  0.00  0.00     0.000 C
ATOM     25  O5  SGN F   2     -19.086  48.883 171.9120  0.00  0.00     0.000 O
ATOM     26   N  SGN F   2     -18.365  49.077 175.5040  0.00  0.00     0.000 N
ATOM     28  HD  SGN F   2     -18.298  48.687 176.2750  0.00  0.00     0.000 HD
ATOM     28   S  SGN F   2     -18.019  50.652 175.9590  0.00  0.00     0.000 S
ATOM     29   O  SGN F   2     -17.527  51.344 174.7890  0.00  0.00     0.000 OA
ATOM     30   O  SGN F   2     -19.279  51.185 176.4250  0.00  0.00     0.000 OA
ATOM     31   O  SGN F   2     -17.070  50.577 177.0090  0.00  0.00     0.000 OA
ATOM     32   O  SGN F   2     -20.905  47.600 175.3760  0.00  0.00     0.000 O
ATOM     34  HD  SGN F   2     -20.838  47.210 176.1460  0.00  0.00     0.000 HD
ATOM     34   C  SGN F   2     -20.451  47.701 170.4700  0.00  0.00     0.000 C
ATOM     35   O  SGN F   2     -21.351  48.757 170.4830  0.00  0.00     0.000 O
ATOM     36   S  SGN F   2     -22.131  49.315 169.2980  0.00  0.00     0.000 S
ATOM     37   O  SGN F   2     -23.512  49.264 169.7080  0.00  0.00     0.000 OA
ATOM     38   O  SGN F   2     -21.606  50.652 169.1220  0.00  0.00     0.000 OA
ATOM     39   O  SGN F   2     -21.849  48.454 168.1560  0.00  0.00     0.000 OA
BRANCH 20 40
ATOM     40  O4  IDS F   3     -17.313  47.975 173.0620  0.00  0.00     0.000 O
BRANCH 40 44
ATOM     41  C1  IDS F   3     -14.346  46.186 173.5010  0.00  0.00     0.000 C
ATOM     42  C2  IDS F   3     -14.781  47.191 174.5380  0.00  0.00     0.000 C
ATOM     43  C3  IDS F   3     -15.160  48.587 173.9120  0.00  0.00     0.000 C
ATOM     44  C4  IDS F   3     -16.024  48.434 172.6750  0.00  0.00     0.000 C
ATOM     45  C5  IDS F   3     -15.373  47.424 171.7320  0.00  0.00     0.000 C
ATOM     46  O5  IDS F   3     -15.239  46.177 172.3770  0.00  0.00     0.000 O
ATOM     47   O  IDS F   3     -16.281  47.641 177.3720  0.00  0.00     0.000 OA
ATOM     48   O  IDS F   3     -17.010  45.423 176.9900  0.00  0.00     0.000 OA
ATOM     49   O  IDS F   3     -14.665  45.961 177.1100  0.00  0.00     0.000 OA
ATOM     50   O  IDS F   3     -15.893  46.649 175.2600  0.00  0.00     0.000 O
ATOM     51   S  IDS F   3     -15.971  46.394 176.7720  0.00  0.00     0.000 S
ATOM     52   O  IDS F   3     -13.974  49.266 173.5100  0.00  0.00     0.000 O
ATOM     54  HD  IDS F   3     -14.130  48.692 174.1380  0.00  0.00     0.000 HD
ATOM     54   C  IDS F   3     -16.067  47.257 170.3760  0.00  0.00     0.000 C
ATOM     55   O  IDS F   3     -16.840  46.325 170.1680  0.00  0.00     0.000 OA
ATOM     56   O  IDS F   3     -15.878  48.062 169.4540  0.00  0.00     0.000 OA
BRANCH 41 57
ATOM     57  O4  SGN F   4     -13.028  46.467 173.1300  0.00  0.00     0.000 O
BRANCH 57 61
ATOM     58  C1  SGN F   4      -9.550  44.380 172.5910  0.00  0.00     0.000 C
ATOM     59  C2  SGN F   4     -10.649  44.149 171.5420  0.00  0.00     0.000 C
ATOM     60  C3  SGN F   4     -11.707  45.238 171.5980  0.00  0.00     0.000 C
ATOM     61  C4  SGN F   4     -12.213  45.346 173.0350  0.00  0.00     0.000 C
ATOM     62  C5  SGN F   4     -11.026  45.514 174.0030  0.00  0.00     0.000 C
ATOM     63  O5  SGN F   4     -10.120  44.463 173.8670  0.00  0.00     0.000 O
ATOM     64   N  SGN F   4     -10.077  44.033 170.2150  0.00  0.00     0.000 N
ATOM     66  HD  SGN F   4     -10.030  43.771 171.0390  0.00  0.00     0.000 HD
ATOM     66   S  SGN F   4      -9.569  42.559 169.7390  0.00  0.00     0.000 S
ATOM     67   O  SGN F   4      -8.408  42.252 170.5530  0.00  0.00     0.000 OA
ATOM     68   O  SGN F   4     -10.657  41.608 169.9570  0.00  0.00     0.000 OA
ATOM     69   O  SGN F   4      -9.232  42.758 168.3470  0.00  0.00     0.000 OA
ATOM     70   O  SGN F   4     -12.805  44.882 170.7710  0.00  0.00     0.000 O
ATOM     72  HD  SGN F   4     -12.759  44.620 171.5950  0.00  0.00     0.000 HD
ATOM     72   C  SGN F   4     -11.407  45.503 175.4610  0.00  0.00     0.000 C
ATOM     73   O  SGN F   4     -12.027  44.266 175.7240  0.00  0.00     0.000 O
ATOM     74   S  SGN F   4     -11.999  43.515 177.0870  0.00  0.00     0.000 S
ATOM     75   O  SGN F   4     -11.987  44.482 178.1340  0.00  0.00     0.000 OA
ATOM     76   O  SGN F   4     -13.191  42.670 177.1380  0.00  0.00     0.000 OA
ATOM     77   O  SGN F   4     -10.776  42.812 177.0540  0.00  0.00     0.000 OA
BRANCH 58 78
ATOM     78  O4  IDS F   5      -8.802  45.532 172.2850  0.00  0.00     0.000 O
BRANCH 78 82
ATOM     79  C1  IDS F   5      -6.405  48.033 171.8960  0.00  0.00     0.000 C
ATOM     80  C2  IDS F   5      -6.878  47.205 170.7080  0.00  0.00     0.000 C
ATOM     81  C3  IDS F   5      -6.787  45.703 170.9870  0.00  0.00     0.000 C
ATOM     82  C4  IDS F   5      -7.416  45.359 172.3540  0.00  0.00     0.000 C
ATOM     83  C5  IDS F   5      -6.842  46.279 173.4340  0.00  0.00     0.000 C
ATOM     84  O5  IDS F   5      -7.037  47.634 173.0850  0.00  0.00     0.000 O
ATOM     85   O  IDS F   5      -5.005  47.932 171.9690  0.00  0.00     0.000 OA
ATOM     86   O  IDS F   5      -8.224  47.509 170.4740  0.00  0.00     0.000 O
ATOM     87   S  IDS F   5      -9.059  47.239 169.1800  0.00  0.00     0.000 S
ATOM     88   O  IDS F   5      -8.523  46.054 168.5650  0.00  0.00     0.000 OA
ATOM     89   O  IDS F   5     -10.426  47.058 169.6140  0.00  0.00     0.000 OA
ATOM     90   O  IDS F   5      -8.858  48.405 168.3600  0.00  0.00     0.000 OA
ATOM     91   O  IDS F   5      -5.421  45.340 171.0050  0.00  0.00     0.000 O
ATOM     93  HD  IDS F   5      -5.279  45.276 171.8570  0.00  0.00     0.000 HD
ATOM     93   O  IDS F   5      -8.032  46.810 175.4200  0.00  0.00     0.000 OA
ATOM     94   O  IDS F   5      -7.135  44.941 175.3850  0.00  0.00     0.000 OA
ATOM     95   C  IDS F   5      -7.367  45.998 174.8290  0.00  0.00     0.000 C
ENDBRANCH 78 82
ENDBRANCH 58 78
ENDBRANCH 57 61
ENDBRANCH 41 57
ENDBRANCH 40 44
ENDBRANCH 20 40
ENDBRANCH 19 23
ENDBRANCH 1 19
TORSDOF 8
ENDMDL
MODEL 66
REMARK VINA RESULT:      -5.3      3.177     11.043
FFDIST PL LJ 2322 74 36 -1
ROOT
ATOM      1  C1  IDS F   1     -17.633  56.933 170.2280  0.00  0.00     0.000 C
ATOM      2  C2  IDS F   1     -16.188  57.444 170.1020  0.00  0.00     0.000 C
ATOM      3  C3  IDS F   1     -16.085  58.812 169.3850  0.00  0.00     0.000 C
ATOM      4  C4  IDS F   1     -17.229  59.792 169.7360  0.00  0.00     0.000 C
ATOM      5  C5  IDS F   1     -18.557  59.037 169.8600  0.00  0.00     0.000 C
ATOM      6  O5  IDS F   1     -18.425  57.971 170.7410  0.00  0.00     0.000 O
ATOM      7   S  IDS F   1     -14.078  57.708 171.7680  0.00  0.00     0.000 S
ATOM      8   O  IDS F   1     -13.552  58.722 170.9040  0.00  0.00     0.000 OA
ATOM      9   O  IDS F   1     -13.990  58.104 173.1440  0.00  0.00     0.000 OA
ATOM     10   O  IDS F   1     -13.523  56.398 171.5150  0.00  0.00     0.000 OA
ATOM     11   O  IDS F   1     -15.615  57.602 171.3840  0.00  0.00     0.000 O
ATOM     12   O  IDS F   1     -16.095  58.594 167.9760  0.00  0.00     0.000 O
ATOM     14  HD  IDS F   1     -16.425  59.106 167.3610  0.00  0.00     0.000 HD
ATOM     14   O  IDS F   1     -16.907  60.389 170.9680  0.00  0.00     0.000 O
ATOM     16  HD  IDS F   1     -17.237  60.902 170.3530  0.00  0.00     0.000 HD
ATOM     16   O  IDS F   1     -20.588  59.417 171.0440  0.00  0.00     0.000 OA
ATOM     17   O  IDS F   1     -19.974  60.968 169.7820  0.00  0.00     0.000 OA
ATOM     18   C  IDS F   1     -19.769  59.859 170.2500  0.00  0.00     0.000 C
ENDROOT
BRANCH 1 19
ATOM     19  O4  SGN F   2     -17.662  55.883 171.1330  0.00  0.00     0.000 O
BRANCH 19 23
ATOM     20  C1  SGN F   2     -20.224  53.747 173.6360  0.00  0.00     0.000 C
ATOM     21  C2  SGN F   2     -20.776  54.064 172.2550  0.00  0.00     0.000 C
ATOM     22  C3  SGN F   2     -19.638  54.330 171.2590  0.00  0.00     0.000 C
ATOM     23  C4  SGN F   2     -18.809  55.507 171.8650  0.00  0.00     0.000 C
ATOM     24  C5  SGN F   2     -18.321  55.038 173.1950  0.00  0.00     0.000 C
ATOM     25  O5  SGN F   2     -19.393  54.796 174.0490  0.00  0.00     0.000 O
ATOM     26   N  SGN F   2     -21.732  53.000 171.8640  0.00  0.00     0.000 N
ATOM     28  HD  SGN F   2     -21.877  52.536 171.1480  0.00  0.00     0.000 HD
ATOM     28   S  SGN F   2     -23.299  53.114 172.4460  0.00  0.00     0.000 S
ATOM     29   O  SGN F   2     -23.217  53.342 173.8710  0.00  0.00     0.000 OA
ATOM     30   O  SGN F   2     -23.872  54.237 171.7400  0.00  0.00     0.000 OA
ATOM     31   O  SGN F   2     -23.951  51.902 172.1060  0.00  0.00     0.000 OA
ATOM     32   O  SGN F   2     -20.213  54.710 170.0140  0.00  0.00     0.000 O
ATOM     34  HD  SGN F   2     -20.359  54.246 169.2980  0.00  0.00     0.000 HD
ATOM     34   C  SGN F   2     -17.459  56.048 173.8760  0.00  0.00     0.000 C
ATOM     35   O  SGN F   2     -18.224  57.205 173.9250  0.00  0.00     0.000 O
ATOM     36   S  SGN F   2     -17.897  58.492 174.6760  0.00  0.00     0.000 S
ATOM     37   O  SGN F   2     -17.957  59.527 173.6750  0.00  0.00     0.000 OA
ATOM     38   O  SGN F   2     -18.921  58.582 175.6940  0.00  0.00     0.000 OA
ATOM     39   O  SGN F   2     -16.564  58.330 175.2420  0.00  0.00     0.000 OA
BRANCH 20 40
ATOM     40  O4  IDS F   3     -19.520  52.534 173.6450  0.00  0.00     0.000 O
BRANCH 40 44
ATOM     41  C1  IDS F   3     -18.609  49.309 174.6230  0.00  0.00     0.000 C
ATOM     42  C2  IDS F   3     -19.979  49.840 174.9610  0.00  0.00     0.000 C
ATOM     43  C3  IDS F   3     -19.930  51.265 175.6330  0.00  0.00     0.000 C
ATOM     44  C4  IDS F   3     -18.973  52.195 174.9120  0.00  0.00     0.000 C
ATOM     45  C5  IDS F   3     -17.631  51.487 174.7290  0.00  0.00     0.000 C
ATOM     46  O5  IDS F   3     -17.807  50.308 173.9760  0.00  0.00     0.000 O
ATOM     47   O  IDS F   3     -23.100  49.944 174.1090  0.00  0.00     0.000 OA
ATOM     48   O  IDS F   3     -22.260  49.059 172.0820  0.00  0.00     0.000 OA
ATOM     49   O  IDS F   3     -21.930  47.912 174.1740  0.00  0.00     0.000 OA
ATOM     50   O  IDS F   3     -20.761  49.880 173.7620  0.00  0.00     0.000 O
ATOM     51   S  IDS F   3     -22.089  49.152 173.5070  0.00  0.00     0.000 S
ATOM     52   O  IDS F   3     -19.463  51.145 176.9730  0.00  0.00     0.000 O
ATOM     54  HD  IDS F   3     -19.904  50.604 176.4600  0.00  0.00     0.000 HD
ATOM     54   C  IDS F   3     -16.516  52.349 174.1270  0.00  0.00     0.000 C
ATOM     55   O  IDS F   3     -16.240  52.287 172.9310  0.00  0.00     0.000 OA
ATOM     56   O  IDS F   3     -15.869  53.141 174.8240  0.00  0.00     0.000 OA
BRANCH 41 57
ATOM     57  O4  SGN F   4     -18.015  48.825 175.7920  0.00  0.00     0.000 O
BRANCH 57 61
ATOM     58  C1  SGN F   4     -15.509  46.301 173.7670  0.00  0.00     0.000 C
ATOM     59  C2  SGN F   4     -16.871  45.719 174.1790  0.00  0.00     0.000 C
ATOM     60  C3  SGN F   4     -17.854  46.816 174.5490  0.00  0.00     0.000 C
ATOM     61  C4  SGN F   4     -17.203  47.713 175.6000  0.00  0.00     0.000 C
ATOM     62  C5  SGN F   4     -15.822  48.189 175.1090  0.00  0.00     0.000 C
ATOM     63  O5  SGN F   4     -15.004  47.103 174.7980  0.00  0.00     0.000 O
ATOM     64   N  SGN F   4     -17.401  44.863 173.1360  0.00  0.00     0.000 N
ATOM     66  HD  SGN F   4     -16.709  45.056 173.6200  0.00  0.00     0.000 HD
ATOM     66   S  SGN F   4     -16.938  43.299 173.1360  0.00  0.00     0.000 S
ATOM     67   O  SGN F   4     -15.530  43.297 172.7890  0.00  0.00     0.000 OA
ATOM     68   O  SGN F   4     -17.174  42.754 174.4720  0.00  0.00     0.000 OA
ATOM     69   O  SGN F   4     -17.764  42.709 172.1070  0.00  0.00     0.000 OA
ATOM     70   O  SGN F   4     -19.020  46.242 175.1230  0.00  0.00     0.000 O
ATOM     72  HD  SGN F   4     -18.328  46.436 175.6070  0.00  0.00     0.000 HD
ATOM     72   C  SGN F   4     -15.039  48.978 176.1260  0.00  0.00     0.000 C
ATOM     73   O  SGN F   4     -14.853  48.149 177.2490  0.00  0.00     0.000 O
ATOM     74   S  SGN F   4     -13.638  48.206 178.2200  0.00  0.00     0.000 S
ATOM     75   O  SGN F   4     -13.206  49.560 178.3220  0.00  0.00     0.000 OA
ATOM     76   O  SGN F   4     -14.091  47.680 179.5070  0.00  0.00     0.000 OA
ATOM     77   O  SGN F   4     -12.657  47.425 177.5730  0.00  0.00     0.000 OA
BRANCH 58 78
ATOM     78  O4  IDS F   5     -15.617  47.018 172.5610  0.00  0.00     0.000 O
BRANCH 78 82
ATOM     79  C1  IDS F   5     -15.064  48.701 169.5600  0.00  0.00     0.000 C
ATOM     80  C2  IDS F   5     -16.001  47.504 169.6280  0.00  0.00     0.000 C
ATOM     81  C3  IDS F   5     -15.336  46.294 170.2880  0.00  0.00     0.000 C
ATOM     82  C4  IDS F   5     -14.645  46.699 171.6080  0.00  0.00     0.000 C
ATOM     83  C5  IDS F   5     -13.747  47.915 171.3700  0.00  0.00     0.000 C
ATOM     84  O5  IDS F   5     -14.491  48.978 170.8120  0.00  0.00     0.000 O
ATOM     85   O  IDS F   5     -14.100  48.445 168.5690  0.00  0.00     0.000 OA
ATOM     86   O  IDS F   5     -17.104  47.858 170.4150  0.00  0.00     0.000 O
ATOM     87   S  IDS F   5     -18.499  47.155 170.4880  0.00  0.00     0.000 S
ATOM     88   O  IDS F   5     -18.287  45.757 170.2230  0.00  0.00     0.000 OA
ATOM     89   O  IDS F   5     -18.997  47.387 171.8240  0.00  0.00     0.000 OA
ATOM     90   O  IDS F   5     -19.283  47.783 169.4570  0.00  0.00     0.000 OA
ATOM     91   O  IDS F   5     -14.362  45.788 169.3970  0.00  0.00     0.000 O
ATOM     93  HD  IDS F   5     -13.635  46.096 169.7540  0.00  0.00     0.000 HD
ATOM     93   O  IDS F   5     -13.198  49.450 173.0980  0.00  0.00     0.000 OA
ATOM     94   O  IDS F   5     -12.151  47.661 173.1230  0.00  0.00     0.000 OA
ATOM     95   C  IDS F   5     -12.988  48.373 172.6010  0.00  0.00     0.000 C
ENDBRANCH 78 82
ENDBRANCH 58 78
ENDBRANCH 57 61
ENDBRANCH 41 57
ENDBRANCH 40 44
ENDBRANCH 20 40
ENDBRANCH 19 23
ENDBRANCH 1 19
TORSDOF 8
ENDMDL
MODEL 67
REMARK VINA RESULT:      -5.3      3.171      5.213
FFDIST PL LJ 2322 74 36 -1
ROOT
ATOM      1  C1  IDS F   1      -7.734  49.156 172.3590  0.00  0.00     0.000 C
ATOM      2  C2  IDS F   1      -7.570  50.169 171.2140  0.00  0.00     0.000 C
ATOM      3  C3  IDS F   1      -7.274  51.605 171.7100  0.00  0.00     0.000 C
ATOM      4  C4  IDS F   1      -6.341  51.664 172.9420  0.00  0.00     0.000 C
ATOM      5  C5  IDS F   1      -6.665  50.521 173.9100  0.00  0.00     0.000 C
ATOM      6  O5  IDS F   1      -6.653  49.304 173.2400  0.00  0.00     0.000 O
ATOM      7   S  IDS F   1      -6.191  50.257 168.8920  0.00  0.00     0.000 S
ATOM      8   O  IDS F   1      -6.248  51.687 168.9390  0.00  0.00     0.000 OA
ATOM      9   O  IDS F   1      -4.876  49.802 168.5440  0.00  0.00     0.000 OA
ATOM     10   O  IDS F   1      -7.231  49.670 168.0800  0.00  0.00     0.000 OA
ATOM     11   O  IDS F   1      -6.495  49.787 170.3790  0.00  0.00     0.000 O
ATOM     12   O  IDS F   1      -8.506  52.238 172.0470  0.00  0.00     0.000 O
ATOM     14  HD  IDS F   1      -8.650  52.825 172.6660  0.00  0.00     0.000 HD
ATOM     14   O  IDS F   1      -5.021  51.530 172.4760  0.00  0.00     0.000 O
ATOM     16  HD  IDS F   1      -5.165  52.118 173.0960  0.00  0.00     0.000 HD
ATOM     16   O  IDS F   1      -5.426  49.324 175.5540  0.00  0.00     0.000 OA
ATOM     17   O  IDS F   1      -5.459  51.404 175.7830  0.00  0.00     0.000 OA
ATOM     18   C  IDS F   1      -5.798  50.417 175.1490  0.00  0.00     0.000 C
ENDROOT
BRANCH 1 19
ATOM     19  O4  SGN F   2      -7.688  47.872 171.8350  0.00  0.00     0.000 O
BRANCH 19 23
ATOM     20  C1  SGN F   2     -11.283  45.853 172.4640  0.00  0.00     0.000 C
ATOM     21  C2  SGN F   2     -10.316  45.847 173.6380  0.00  0.00     0.000 C
ATOM     22  C3  SGN F   2      -9.329  47.019 173.5410  0.00  0.00     0.000 C
ATOM     23  C4  SGN F   2      -8.610  46.855 172.1640  0.00  0.00     0.000 C
ATOM     24  C5  SGN F   2      -9.677  46.904 171.1220  0.00  0.00     0.000 C
ATOM     25  O5  SGN F   2     -10.551  45.831 171.2700  0.00  0.00     0.000 O
ATOM     26   N  SGN F   2     -11.093  45.770 174.8990  0.00  0.00     0.000 N
ATOM     28  HD  SGN F   2     -11.068  46.174 175.6640  0.00  0.00     0.000 HD
ATOM     28   S  SGN F   2     -11.611  44.257 175.3990  0.00  0.00     0.000 S
ATOM     29   O  SGN F   2     -12.250  43.621 174.2690  0.00  0.00     0.000 OA
ATOM     30   O  SGN F   2     -10.405  43.573 175.8070  0.00  0.00     0.000 OA
ATOM     31   O  SGN F   2     -12.484  44.465 176.4960  0.00  0.00     0.000 OA
ATOM     32   O  SGN F   2      -8.397  46.909 174.6100  0.00  0.00     0.000 O
ATOM     34  HD  SGN F   2      -8.371  47.313 175.3760  0.00  0.00     0.000 HD
ATOM     34   C  SGN F   2      -9.128  46.813 169.7370  0.00  0.00     0.000 C
ATOM     35   O  SGN F   2      -8.370  45.651 169.7220  0.00  0.00     0.000 O
ATOM     36   S  SGN F   2      -7.733  44.985 168.5070  0.00  0.00     0.000 S
ATOM     37   O  SGN F   2      -6.337  44.864 168.8420  0.00  0.00     0.000 OA
ATOM     38   O  SGN F   2      -8.432  43.724 168.3830  0.00  0.00     0.000 OA
ATOM     39   O  SGN F   2      -7.966  45.862 167.3670  0.00  0.00     0.000 OA
BRANCH 20 40
ATOM     40  O4  IDS F   3     -12.129  46.971 172.4970  0.00  0.00     0.000 O
BRANCH 40 44
ATOM     41  C1  IDS F   3     -14.608  49.153 173.6310  0.00  0.00     0.000 C
ATOM     42  C2  IDS F   3     -13.945  48.199 174.5930  0.00  0.00     0.000 C
ATOM     43  C3  IDS F   3     -13.924  46.715 174.0610  0.00  0.00     0.000 C
ATOM     44  C4  IDS F   3     -13.508  46.646 172.6040  0.00  0.00     0.000 C
ATOM     45  C5  IDS F   3     -14.343  47.641 171.7980  0.00  0.00     0.000 C
ATOM     46  O5  IDS F   3     -14.142  48.947 172.2890  0.00  0.00     0.000 O
ATOM     47   O  IDS F   3     -11.637  47.819 176.8310  0.00  0.00     0.000 OA
ATOM     48   O  IDS F   3     -10.879  49.884 175.9580  0.00  0.00     0.000 OA
ATOM     49   O  IDS F   3     -13.090  49.661 176.8890  0.00  0.00     0.000 OA
ATOM     50   O  IDS F   3     -12.613  48.659 174.8460  0.00  0.00     0.000 O
ATOM     51   S  IDS F   3     -12.014  49.037 176.2090  0.00  0.00     0.000 S
ATOM     52   O  IDS F   3     -15.231  46.158 174.1490  0.00  0.00     0.000 O
ATOM     54  HD  IDS F   3     -14.824  46.762 174.6160  0.00  0.00     0.000 HD
ATOM     54   C  IDS F   3     -14.127  47.596 170.2820  0.00  0.00     0.000 C
ATOM     55   O  IDS F   3     -13.386  48.400 169.7210  0.00  0.00     0.000 OA
ATOM     56   O  IDS F   3     -14.683  46.741 169.5790  0.00  0.00     0.000 OA
BRANCH 41 57
ATOM     57  O4  SGN F   4     -15.994  49.009 173.7400  0.00  0.00     0.000 O
BRANCH 57 61
ATOM     58  C1  SGN F   4     -19.239  51.443 174.2780  0.00  0.00     0.000 C
ATOM     59  C2  SGN F   4     -18.465  51.624 172.9620  0.00  0.00     0.000 C
ATOM     60  C3  SGN F   4     -17.558  50.438 172.6840  0.00  0.00     0.000 C
ATOM     61  C4  SGN F   4     -16.678  50.205 173.9110  0.00  0.00     0.000 C
ATOM     62  C5  SGN F   4     -17.551  50.099 175.1770  0.00  0.00     0.000 C
ATOM     63  O5  SGN F   4     -18.341  51.238 175.3330  0.00  0.00     0.000 O
ATOM     64   N  SGN F   4     -19.376  51.864 171.8600  0.00  0.00     0.000 N
ATOM     66  HD  SGN F   4     -19.158  52.085 172.6680  0.00  0.00     0.000 HD
ATOM     66   S  SGN F   4     -19.839  53.404 171.5860  0.00  0.00     0.000 S
ATOM     67   O  SGN F   4     -20.681  53.775 172.7080  0.00  0.00     0.000 OA
ATOM     68   O  SGN F   4     -18.639  54.234 171.5040  0.00  0.00     0.000 OA
ATOM     69   O  SGN F   4     -20.577  53.312 170.3470  0.00  0.00     0.000 OA
ATOM     70   O  SGN F   4     -16.709  50.732 171.5840  0.00  0.00     0.000 O
ATOM     72  HD  SGN F   4     -16.491  50.952 172.3930  0.00  0.00     0.000 HD
ATOM     72   C  SGN F   4     -16.772  49.996 176.4620  0.00  0.00     0.000 C
ATOM     73   O  SGN F   4     -15.975  51.153 176.5650  0.00  0.00     0.000 O
ATOM     74   S  SGN F   4     -15.535  51.829 177.8950  0.00  0.00     0.000 S
ATOM     75   O  SGN F   4     -15.351  50.813 178.8780  0.00  0.00     0.000 OA
ATOM     76   O  SGN F   4     -14.294  52.553 177.6210  0.00  0.00     0.000 OA
ATOM     77   O  SGN F   4     -16.634  52.646 178.2340  0.00  0.00     0.000 OA
BRANCH 58 78
ATOM     78  O4  IDS F   5     -20.162  50.385 174.1740  0.00  0.00     0.000 O
BRANCH 78 82
ATOM     79  C1  IDS F   5     -22.801  48.126 174.4570  0.00  0.00     0.000 C
ATOM     80  C2  IDS F   5     -22.663  49.024 173.2360  0.00  0.00     0.000 C
ATOM     81  C3  IDS F   5     -22.498  50.495 173.6250  0.00  0.00     0.000 C
ATOM     82  C4  IDS F   5     -21.421  50.657 174.7180  0.00  0.00     0.000 C
ATOM     83  C5  IDS F   5     -21.699  49.685 175.8660  0.00  0.00     0.000 C
ATOM     84  O5  IDS F   5     -21.773  48.359 175.3850  0.00  0.00     0.000 O
ATOM     85   O  IDS F   5     -24.079  48.327 175.0050  0.00  0.00     0.000 OA
ATOM     86   O  IDS F   5     -21.509  48.641 172.5410  0.00  0.00     0.000 O
ATOM     87   S  IDS F   5     -21.125  48.968 171.0610  0.00  0.00     0.000 S
ATOM     88   O  IDS F   5     -21.707  50.246 170.7410  0.00  0.00     0.000 OA
ATOM     89   O  IDS F   5     -19.681  49.001 171.0180  0.00  0.00     0.000 OA
ATOM     90   O  IDS F   5     -21.707  47.906 170.2840  0.00  0.00     0.000 OA
ATOM     91   O  IDS F   5     -23.735  50.959 174.1270  0.00  0.00     0.000 O
ATOM     93  HD  IDS F   5     -23.580  50.952 174.9790  0.00  0.00     0.000 HD
ATOM     93   O  IDS F   5     -19.982  48.875 177.2950  0.00  0.00     0.000 OA
ATOM     94   O  IDS F   5     -20.638  50.802 177.6860  0.00  0.00     0.000 OA
ATOM     95   C  IDS F   5     -20.716  49.789 177.0170  0.00  0.00     0.000 C
ENDBRANCH 78 82
ENDBRANCH 58 78
ENDBRANCH 57 61
ENDBRANCH 41 57
ENDBRANCH 40 44
ENDBRANCH 20 40
ENDBRANCH 19 23
ENDBRANCH 1 19
TORSDOF 8
ENDMDL
MODEL 68
REMARK VINA RESULT:      -5.3      3.090     11.100
FFDIST PL LJ 2322 74 36 -1
ROOT
ATOM      1  C1  IDS F   1     -17.281  57.348 169.9640  0.00  0.00     0.000 C
ATOM      2  C2  IDS F   1     -16.012  57.950 169.3380  0.00  0.00     0.000 C
ATOM      3  C3  IDS F   1     -16.297  59.191 168.4580  0.00  0.00     0.000 C
ATOM      4  C4  IDS F   1     -17.404  60.116 169.0160  0.00  0.00     0.000 C
ATOM      5  C5  IDS F   1     -18.532  59.283 169.6360  0.00  0.00     0.000 C
ATOM      6  O5  IDS F   1     -18.015  58.384 170.5600  0.00  0.00     0.000 O
ATOM      7   S  IDS F   1     -13.560  58.650 170.2310  0.00  0.00     0.000 S
ATOM      8   O  IDS F   1     -13.441  59.554 169.1270  0.00  0.00     0.000 OA
ATOM      9   O  IDS F   1     -13.127  59.264 171.4520  0.00  0.00     0.000 OA
ATOM     10   O  IDS F   1     -12.942  57.367 169.9870  0.00  0.00     0.000 OA
ATOM     11   O  IDS F   1     -15.117  58.357 170.3530  0.00  0.00     0.000 O
ATOM     12   O  IDS F   1     -16.689  58.753 167.1600  0.00  0.00     0.000 O
ATOM     14  HD  IDS F   1     -17.245  59.132 166.6160  0.00  0.00     0.000 HD
ATOM     14   O  IDS F   1     -16.817  60.925 170.0050  0.00  0.00     0.000 O
ATOM     16  HD  IDS F   1     -17.374  61.305 169.4610  0.00  0.00     0.000 HD
ATOM     16   O  IDS F   1     -20.161  59.674 171.3270  0.00  0.00     0.000 OA
ATOM     17   O  IDS F   1     -20.143  61.052 169.7520  0.00  0.00     0.000 OA
ATOM     18   C  IDS F   1     -19.672  60.052 170.2710  0.00  0.00     0.000 C
ENDROOT
BRANCH 1 19
ATOM     19  O4  SGN F   2     -16.913  56.455 170.9590  0.00  0.00     0.000 O
BRANCH 19 23
ATOM     20  C1  SGN F   2     -18.318  54.576 174.4070  0.00  0.00     0.000 C
ATOM     21  C2  SGN F   2     -19.281  54.585 173.2300  0.00  0.00     0.000 C
ATOM     22  C3  SGN F   2     -18.525  54.772 171.9060  0.00  0.00     0.000 C
ATOM     23  C4  SGN F   2     -17.736  56.112 172.0540  0.00  0.00     0.000 C
ATOM     24  C5  SGN F   2     -16.827  55.940 173.2240  0.00  0.00     0.000 C
ATOM     25  O5  SGN F   2     -17.564  55.756 174.3900  0.00  0.00     0.000 O
ATOM     26   N  SGN F   2     -20.145  53.382 173.3070  0.00  0.00     0.000 N
ATOM     28  HD  SGN F   2     -20.420  52.784 172.7450  0.00  0.00     0.000 HD
ATOM     28   S  SGN F   2     -21.480  53.451 174.3170  0.00  0.00     0.000 S
ATOM     29   O  SGN F   2     -21.029  53.940 175.6010  0.00  0.00     0.000 OA
ATOM     30   O  SGN F   2     -22.387  54.369 173.6650  0.00  0.00     0.000 OA
ATOM     31   O  SGN F   2     -22.020  52.142 174.3720  0.00  0.00     0.000 OA
ATOM     32   O  SGN F   2     -19.480  54.864 170.8550  0.00  0.00     0.000 O
ATOM     34  HD  SGN F   2     -19.755  54.266 170.2930  0.00  0.00     0.000 HD
ATOM     34   C  SGN F   2     -15.961  57.133 173.4560  0.00  0.00     0.000 C
ATOM     35   O  SGN F   2     -16.838  58.202 173.5680  0.00  0.00     0.000 O
ATOM     36   S  SGN F   2     -16.500  59.629 173.9880  0.00  0.00     0.000 S
ATOM     37   O  SGN F   2     -16.991  60.455 172.9150  0.00  0.00     0.000 OA
ATOM     38   O  SGN F   2     -17.192  59.805 175.2460  0.00  0.00     0.000 OA
ATOM     39   O  SGN F   2     -15.052  59.698 174.1370  0.00  0.00     0.000 OA
BRANCH 20 40
ATOM     40  O4  IDS F   3     -17.474  53.457 174.3760  0.00  0.00     0.000 O
BRANCH 40 44
ATOM     41  C1  IDS F   3     -15.868  50.640 175.6710  0.00  0.00     0.000 C
ATOM     42  C2  IDS F   3     -17.051  51.233 176.3940  0.00  0.00     0.000 C
ATOM     43  C3  IDS F   3     -16.917  52.789 176.6070  0.00  0.00     0.000 C
ATOM     44  C4  IDS F   3     -16.438  53.490 175.3490  0.00  0.00     0.000 C
ATOM     45  C5  IDS F   3     -15.199  52.770 174.8170  0.00  0.00     0.000 C
ATOM     46  O5  IDS F   3     -15.510  51.427 174.5240  0.00  0.00     0.000 O
ATOM     47   O  IDS F   3     -20.244  51.067 176.8970  0.00  0.00     0.000 OA
ATOM     48   O  IDS F   3     -20.161  49.660 174.9970  0.00  0.00     0.000 OA
ATOM     49   O  IDS F   3     -18.903  49.144 176.9850  0.00  0.00     0.000 OA
ATOM     50   O  IDS F   3     -18.237  50.929 175.6520  0.00  0.00     0.000 O
ATOM     51   S  IDS F   3     -19.460  50.148 176.1540  0.00  0.00     0.000 S
ATOM     52   O  IDS F   3     -15.953  53.051 177.6210  0.00  0.00     0.000 O
ATOM     54  HD  IDS F   3     -16.489  52.385 177.4870  0.00  0.00     0.000 HD
ATOM     54   C  IDS F   3     -14.522  53.441 173.6160  0.00  0.00     0.000 C
ATOM     55   O  IDS F   3     -14.729  53.050 172.4700  0.00  0.00     0.000 OA
ATOM     56   O  IDS F   3     -13.756  54.401 173.7650  0.00  0.00     0.000 OA
BRANCH 41 57
ATOM     57  O4  SGN F   4     -14.810  50.506 176.5750  0.00  0.00     0.000 O
BRANCH 57 61
ATOM     58  C1  SGN F   4     -13.576  47.063 174.7390  0.00  0.00     0.000 C
ATOM     59  C2  SGN F   4     -13.965  46.941 176.2210  0.00  0.00     0.000 C
ATOM     60  C3  SGN F   4     -14.771  48.142 176.6850  0.00  0.00     0.000 C
ATOM     61  C4  SGN F   4     -13.992  49.409 176.3360  0.00  0.00     0.000 C
ATOM     62  C5  SGN F   4     -13.603  49.398 174.8450  0.00  0.00     0.000 C
ATOM     63  O5  SGN F   4     -12.869  48.254 174.5310  0.00  0.00     0.000 O
ATOM     64   N  SGN F   4     -14.675  45.700 176.4650  0.00  0.00     0.000 N
ATOM     66  HD  SGN F   4     -13.980  46.067 176.1010  0.00  0.00     0.000 HD
ATOM     66   S  SGN F   4     -13.785  44.370 176.7780  0.00  0.00     0.000 S
ATOM     67   O  SGN F   4     -13.103  44.044 175.5400  0.00  0.00     0.000 OA
ATOM     68   O  SGN F   4     -12.847  44.691 177.8520  0.00  0.00     0.000 OA
ATOM     69   O  SGN F   4     -14.779  43.385 177.1390  0.00  0.00     0.000 OA
ATOM     70   O  SGN F   4     -14.928  48.098 178.0960  0.00  0.00     0.000 O
ATOM     72  HD  SGN F   4     -14.233  48.464 177.7320  0.00  0.00     0.000 HD
ATOM     72   C  SGN F   4     -12.721  50.545 174.4240  0.00  0.00     0.000 C
ATOM     73   O  SGN F   4     -11.543  50.473 175.1940  0.00  0.00     0.000 O
ATOM     74   S  SGN F   4     -10.136  50.952 174.7350  0.00  0.00     0.000 S
ATOM     75   O  SGN F   4     -10.300  52.085 173.8850  0.00  0.00     0.000 OA
ATOM     76   O  SGN F   4      -9.378  51.281 175.9410  0.00  0.00     0.000 OA
ATOM     77   O  SGN F   4      -9.635  49.857 174.0010  0.00  0.00     0.000 OA
BRANCH 58 78
ATOM     78  O4  IDS F   5     -14.715  46.989 173.9160  0.00  0.00     0.000 O
BRANCH 78 82
ATOM     79  C1  IDS F   5     -17.073  46.553 171.3860  0.00  0.00     0.000 C
ATOM     80  C2  IDS F   5     -16.984  45.580 172.5540  0.00  0.00     0.000 C
ATOM     81  C3  IDS F   5     -15.558  45.061 172.7570  0.00  0.00     0.000 C
ATOM     82  C4  IDS F   5     -14.544  46.225 172.7570  0.00  0.00     0.000 C
ATOM     83  C5  IDS F   5     -14.770  47.108 171.5280  0.00  0.00     0.000 C
ATOM     84  O5  IDS F   5     -16.106  47.566 171.4860  0.00  0.00     0.000 O
ATOM     85   O  IDS F   5     -16.962  45.816 170.1940  0.00  0.00     0.000 OA
ATOM     86   O  IDS F   5     -17.353  46.263 173.7190  0.00  0.00     0.000 O
ATOM     87   S  IDS F   5     -17.791  45.655 175.0910  0.00  0.00     0.000 S
ATOM     88   O  IDS F   5     -17.107  44.397 175.2400  0.00  0.00     0.000 OA
ATOM     89   O  IDS F   5     -17.397  46.612 176.0990  0.00  0.00     0.000 OA
ATOM     90   O  IDS F   5     -19.215  45.480 174.9800  0.00  0.00     0.000 OA
ATOM     91   O  IDS F   5     -15.252  44.186 171.6900  0.00  0.00     0.000 O
ATOM     93  HD  IDS F   5     -14.754  44.694 171.1970  0.00  0.00     0.000 HD
ATOM     93   O  IDS F   5     -14.173  49.407 171.4840  0.00  0.00     0.000 OA
ATOM     94   O  IDS F   5     -12.607  48.070 171.2470  0.00  0.00     0.000 OA
ATOM     95   C  IDS F   5     -13.796  48.265 171.4110  0.00  0.00     0.000 C
ENDBRANCH 78 82
ENDBRANCH 58 78
ENDBRANCH 57 61
ENDBRANCH 41 57
ENDBRANCH 40 44
ENDBRANCH 20 40
ENDBRANCH 19 23
ENDBRANCH 1 19
TORSDOF 8
ENDMDL
MODEL 69
REMARK VINA RESULT:      -5.3      4.379     13.037
FFDIST PL LJ 2322 74 36 -1
ROOT
ATOM      1  C1  IDS F   1     -21.290  48.223 173.1020  0.00  0.00     0.000 C
ATOM      2  C2  IDS F   1     -20.325  49.178 173.8230  0.00  0.00     0.000 C
ATOM      3  C3  IDS F   1     -20.352  50.617 173.2520  0.00  0.00     0.000 C
ATOM      4  C4  IDS F   1     -21.761  51.101 172.8350  0.00  0.00     0.000 C
ATOM      5  C5  IDS F   1     -22.548  49.955 172.1890  0.00  0.00     0.000 C
ATOM      6  O5  IDS F   1     -22.546  48.841 173.0190  0.00  0.00     0.000 O
ATOM      7   S  IDS F   1     -19.765  49.783 176.3960  0.00  0.00     0.000 S
ATOM      8   O  IDS F   1     -19.264  51.053 175.9650  0.00  0.00     0.000 OA
ATOM      9   O  IDS F   1     -20.605  49.922 177.5500  0.00  0.00     0.000 OA
ATOM     10   O  IDS F   1     -18.731  48.787 176.5610  0.00  0.00     0.000 OA
ATOM     11   O  IDS F   1     -20.664  49.268 175.1920  0.00  0.00     0.000 O
ATOM     12   O  IDS F   1     -19.500  50.674 172.1110  0.00  0.00     0.000 O
ATOM     14  HD  IDS F   1     -19.594  51.161 171.4010  0.00  0.00     0.000 HD
ATOM     14   O  IDS F   1     -22.420  51.529 174.0010  0.00  0.00     0.000 O
ATOM     16  HD  IDS F   1     -22.514  52.016 173.2910  0.00  0.00     0.000 HD
ATOM     16   O  IDS F   1     -24.861  49.444 171.9530  0.00  0.00     0.000 OA
ATOM     17   O  IDS F   1     -24.270  51.316 171.2310  0.00  0.00     0.000 OA
ATOM     18   C  IDS F   1     -23.971  50.263 171.7690  0.00  0.00     0.000 C
ENDROOT
BRANCH 1 19
ATOM     19  O4  SGN F   2     -21.428  47.067 173.8560  0.00  0.00     0.000 O
BRANCH 19 23
ATOM     20  C1  SGN F   2     -18.678  44.064 172.9570  0.00  0.00     0.000 C
ATOM     21  C2  SGN F   2     -19.735  44.321 171.8950  0.00  0.00     0.000 C
ATOM     22  C3  SGN F   2     -20.320  45.734 172.0340  0.00  0.00     0.000 C
ATOM     23  C4  SGN F   2     -20.888  45.817 173.4870  0.00  0.00     0.000 C
ATOM     24  C5  SGN F   2     -19.738  45.569 174.4050  0.00  0.00     0.000 C
ATOM     25  O5  SGN F   2     -19.239  44.283 174.2220  0.00  0.00     0.000 O
ATOM     26   N  SGN F   2     -19.168  43.992 170.5650  0.00  0.00     0.000 N
ATOM     28  HD  SGN F   2     -19.165  44.370 169.7860  0.00  0.00     0.000 HD
ATOM     28   S  SGN F   2     -19.177  42.384 170.0940  0.00  0.00     0.000 S
ATOM     29   O  SGN F   2     -18.623  41.610 171.1820  0.00  0.00     0.000 OA
ATOM     30   O  SGN F   2     -20.570  42.079 169.8540  0.00  0.00     0.000 OA
ATOM     31   O  SGN F   2     -18.417  42.302 168.9000  0.00  0.00     0.000 OA
ATOM     32   O  SGN F   2     -21.362  45.883 171.0780  0.00  0.00     0.000 O
ATOM     34  HD  SGN F   2     -21.359  46.261 170.2980  0.00  0.00     0.000 HD
ATOM     34   C  SGN F   2     -20.123  45.672 175.8430  0.00  0.00     0.000 C
ATOM     35   O  SGN F   2     -21.180  44.787 176.0010  0.00  0.00     0.000 O
ATOM     36   S  SGN F   2     -21.836  44.363 177.3110  0.00  0.00     0.000 S
ATOM     37   O  SGN F   2     -23.236  44.654 177.1330  0.00  0.00     0.000 OA
ATOM     38   O  SGN F   2     -21.525  42.954 177.4270  0.00  0.00     0.000 OA
ATOM     39   O  SGN F   2     -21.225  45.155 178.3710  0.00  0.00     0.000 OA
BRANCH 20 40
ATOM     40  O4  IDS F   3     -17.553  44.880 172.7750  0.00  0.00     0.000 O
BRANCH 40 44
ATOM     41  C1  IDS F   3     -14.345  46.238 173.0110  0.00  0.00     0.000 C
ATOM     42  C2  IDS F   3     -15.043  46.182 171.6760  0.00  0.00     0.000 C
ATOM     43  C3  IDS F   3     -15.629  44.755 171.3540  0.00  0.00     0.000 C
ATOM     44  C4  IDS F   3     -16.349  44.159 172.5500  0.00  0.00     0.000 C
ATOM     45  C5  IDS F   3     -15.444  44.258 173.7780  0.00  0.00     0.000 C
ATOM     46  O5  IDS F   3     -15.128  45.608 174.0360  0.00  0.00     0.000 O
ATOM     47   O  IDS F   3     -16.821  47.805 169.5110  0.00  0.00     0.000 OA
ATOM     48   O  IDS F   3     -17.082  49.315 171.3130  0.00  0.00     0.000 OA
ATOM     49   O  IDS F   3     -14.899  48.759 170.4600  0.00  0.00     0.000 OA
ATOM     50   O  IDS F   3     -16.085  47.165 171.6660  0.00  0.00     0.000 O
ATOM     51   S  IDS F   3     -16.233  48.338 170.6860  0.00  0.00     0.000 S
ATOM     52   O  IDS F   3     -14.567  43.867 171.0230  0.00  0.00     0.000 O
ATOM     54  HD  IDS F   3     -14.660  44.723 170.9290  0.00  0.00     0.000 HD
ATOM     54   C  IDS F   3     -15.984  43.580 175.0410  0.00  0.00     0.000 C
ATOM     55   O  IDS F   3     -16.547  44.228 175.9200  0.00  0.00     0.000 OA
ATOM     56   O  IDS F   3     -15.879  42.357 175.2080  0.00  0.00     0.000 OA
BRANCH 41 57
ATOM     57  O4  SGN F   4     -13.079  45.660 172.8790  0.00  0.00     0.000 O
BRANCH 57 61
ATOM     58  C1  SGN F   4      -9.787  45.682 175.3110  0.00  0.00     0.000 C
ATOM     59  C2  SGN F   4     -10.539  44.347 175.1990  0.00  0.00     0.000 C
ATOM     60  C3  SGN F   4     -11.469  44.332 173.9980  0.00  0.00     0.000 C
ATOM     61  C4  SGN F   4     -12.370  45.564 174.0700  0.00  0.00     0.000 C
ATOM     62  C5  SGN F   4     -11.516  46.835 174.2410  0.00  0.00     0.000 C
ATOM     63  O5  SGN F   4     -10.703  46.740 175.3700  0.00  0.00     0.000 O
ATOM     64   N  SGN F   4      -9.609  43.235 175.1630  0.00  0.00     0.000 N
ATOM     66  HD  SGN F   4      -9.833  43.967 175.5670  0.00  0.00     0.000 HD
ATOM     66   S  SGN F   4      -9.108  42.624 176.5890  0.00  0.00     0.000 S
ATOM     67   O  SGN F   4      -8.273  43.646 177.1920  0.00  0.00     0.000 OA
ATOM     68   O  SGN F   4     -10.288  42.332 177.4010  0.00  0.00     0.000 OA
ATOM     69   O  SGN F   4      -8.357  41.452 176.2010  0.00  0.00     0.000 OA
ATOM     70   O  SGN F   4     -12.297  43.179 174.0470  0.00  0.00     0.000 O
ATOM     72  HD  SGN F   4     -12.521  43.911 174.4520  0.00  0.00     0.000 HD
ATOM     72   C  SGN F   4     -12.314  48.096 174.4500  0.00  0.00     0.000 C
ATOM     73   O  SGN F   4     -13.086  47.916 175.6150  0.00  0.00     0.000 O
ATOM     74   S  SGN F   4     -13.529  49.048 176.5870  0.00  0.00     0.000 S
ATOM     75   O  SGN F   4     -13.748  50.234 175.8270  0.00  0.00     0.000 OA
ATOM     76   O  SGN F   4     -14.749  48.593 177.2510  0.00  0.00     0.000 OA
ATOM     77   O  SGN F   4     -12.416  49.210 177.4380  0.00  0.00     0.000 OA
BRANCH 58 78
ATOM     78  O4  IDS F   5      -8.887  45.840 174.2400  0.00  0.00     0.000 O
BRANCH 78 82
ATOM     79  C1  IDS F   5      -6.292  46.687 172.0730  0.00  0.00     0.000 C
ATOM     80  C2  IDS F   5      -6.453  45.263 172.5880  0.00  0.00     0.000 C
ATOM     81  C3  IDS F   5      -6.570  45.217 174.1130  0.00  0.00     0.000 C
ATOM     82  C4  IDS F   5      -7.604  46.248 174.6160  0.00  0.00     0.000 C
ATOM     83  C5  IDS F   5      -7.307  47.619 174.0050  0.00  0.00     0.000 C
ATOM     84  O5  IDS F   5      -7.280  47.538 172.5950  0.00  0.00     0.000 O
ATOM     85   O  IDS F   5      -4.990  47.118 172.3820  0.00  0.00     0.000 OA
ATOM     86   O  IDS F   5      -7.639  44.740 172.0580  0.00  0.00     0.000 O
ATOM     87   S  IDS F   5      -8.068  43.240 171.9600  0.00  0.00     0.000 S
ATOM     88   O  IDS F   5      -7.470  42.550 173.0730  0.00  0.00     0.000 OA
ATOM     89   O  IDS F   5      -9.512  43.230 172.0260  0.00  0.00     0.000 OA
ATOM     90   O  IDS F   5      -7.540  42.786 170.7010  0.00  0.00     0.000 OA
ATOM     91   O  IDS F   5      -5.306  45.531 174.6610  0.00  0.00     0.000 O
ATOM     93  HD  IDS F   5      -5.430  46.353 174.9040  0.00  0.00     0.000 HD
ATOM     93   O  IDS F   5      -8.989  49.267 173.6940  0.00  0.00     0.000 OA
ATOM     94   O  IDS F   5      -8.275  49.069 175.6310  0.00  0.00     0.000 OA
ATOM     95   C  IDS F   5      -8.245  48.718 174.4660  0.00  0.00     0.000 C
ENDBRANCH 78 82
ENDBRANCH 58 78
ENDBRANCH 57 61
ENDBRANCH 41 57
ENDBRANCH 40 44
ENDBRANCH 20 40
ENDBRANCH 19 23
ENDBRANCH 1 19
TORSDOF 8
ENDMDL
MODEL 70
REMARK VINA RESULT:      -5.3      3.490     11.974
FFDIST PL LJ 2322 74 36 -1
ROOT
ATOM      1  C1  IDS F   1     -17.066  57.672 169.2880  0.00  0.00     0.000 C
ATOM      2  C2  IDS F   1     -16.212  57.397 168.0390  0.00  0.00     0.000 C
ATOM      3  C3  IDS F   1     -16.985  57.610 166.7140  0.00  0.00     0.000 C
ATOM      4  C4  IDS F   1     -17.960  58.809 166.7420  0.00  0.00     0.000 C
ATOM      5  C5  IDS F   1     -18.649  58.904 168.1080  0.00  0.00     0.000 C
ATOM      6  O5  IDS F   1     -17.702  58.911 169.1250  0.00  0.00     0.000 O
ATOM      7   S  IDS F   1     -13.751  58.111 167.1830  0.00  0.00     0.000 S
ATOM      8   O  IDS F   1     -14.174  57.871 165.8360  0.00  0.00     0.000 OA
ATOM      9   O  IDS F   1     -13.023  59.342 167.2860  0.00  0.00     0.000 OA
ATOM     10   O  IDS F   1     -13.058  56.988 167.7720  0.00  0.00     0.000 OA
ATOM     11   O  IDS F   1     -15.096  58.264 168.0130  0.00  0.00     0.000 O
ATOM     12   O  IDS F   1     -17.729  56.430 166.4220  0.00  0.00     0.000 O
ATOM     14  HD  IDS F   1     -18.495  56.369 166.0220  0.00  0.00     0.000 HD
ATOM     14   O  IDS F   1     -17.203  59.972 166.5110  0.00  0.00     0.000 O
ATOM     16  HD  IDS F   1     -17.969  59.912 166.1110  0.00  0.00     0.000 HD
ATOM     16   O  IDS F   1     -19.623  60.675 169.3660  0.00  0.00     0.000 OA
ATOM     17   O  IDS F   1     -20.381  60.415 167.4330  0.00  0.00     0.000 OA
ATOM     18   C  IDS F   1     -19.603  60.065 168.3060  0.00  0.00     0.000 C
ENDROOT
BRANCH 1 19
ATOM     19  O4  SGN F   2     -16.233  57.758 170.3930  0.00  0.00     0.000 O
BRANCH 19 23
ATOM     20  C1  SGN F   2     -16.808  55.766 174.0110  0.00  0.00     0.000 C
ATOM     21  C2  SGN F   2     -18.069  56.300 173.3520  0.00  0.00     0.000 C
ATOM     22  C3  SGN F   2     -17.858  56.501 171.8450  0.00  0.00     0.000 C
ATOM     23  C4  SGN F   2     -16.645  57.478 171.7130  0.00  0.00     0.000 C
ATOM     24  C5  SGN F   2     -15.490  56.809 172.3800  0.00  0.00     0.000 C
ATOM     25  O5  SGN F   2     -15.745  56.636 173.7370  0.00  0.00     0.000 O
ATOM     26   N  SGN F   2     -19.211  55.431 173.7260  0.00  0.00     0.000 N
ATOM     28  HD  SGN F   2     -19.874  55.069 173.3030  0.00  0.00     0.000 HD
ATOM     28   S  SGN F   2     -19.944  55.708 175.2080  0.00  0.00     0.000 S
ATOM     29   O  SGN F   2     -18.898  55.773 176.2040  0.00  0.00     0.000 OA
ATOM     30   O  SGN F   2     -20.632  56.969 175.0470  0.00  0.00     0.000 OA
ATOM     31   O  SGN F   2     -20.856  54.644 175.4190  0.00  0.00     0.000 OA
ATOM     32   O  SGN F   2     -19.035  57.087 171.3020  0.00  0.00     0.000 O
ATOM     34  HD  SGN F   2     -19.698  56.725 170.8790  0.00  0.00     0.000 HD
ATOM     34   C  SGN F   2     -14.234  57.609 172.2850  0.00  0.00     0.000 C
ATOM     35   O  SGN F   2     -14.553  58.852 172.8110  0.00  0.00     0.000 O
ATOM     36   S  SGN F   2     -13.592  59.994 173.1210  0.00  0.00     0.000 S
ATOM     37   O  SGN F   2     -14.117  61.125 172.3990  0.00  0.00     0.000 OA
ATOM     38   O  SGN F   2     -13.643  60.124 174.5610  0.00  0.00     0.000 OA
ATOM     39   O  SGN F   2     -12.275  59.585 172.6480  0.00  0.00     0.000 OA
BRANCH 20 40
ATOM     40  O4  IDS F   3     -16.503  54.470 173.5690  0.00  0.00     0.000 O
BRANCH 40 44
ATOM     41  C1  IDS F   3     -16.023  51.026 173.2550  0.00  0.00     0.000 C
ATOM     42  C2  IDS F   3     -17.282  51.557 173.8930  0.00  0.00     0.000 C
ATOM     43  C3  IDS F   3     -16.992  52.626 175.0150  0.00  0.00     0.000 C
ATOM     44  C4  IDS F   3     -15.948  53.634 174.5750  0.00  0.00     0.000 C
ATOM     45  C5  IDS F   3     -14.734  52.887 174.0210  0.00  0.00     0.000 C
ATOM     46  O5  IDS F   3     -15.118  52.090 172.9240  0.00  0.00     0.000 O
ATOM     47   O  IDS F   3     -20.394  52.329 173.4470  0.00  0.00     0.000 OA
ATOM     48   O  IDS F   3     -19.796  52.145 171.1650  0.00  0.00     0.000 OA
ATOM     49   O  IDS F   3     -19.530  50.288 172.6770  0.00  0.00     0.000 OA
ATOM     50   O  IDS F   3     -18.110  52.119 172.8690  0.00  0.00     0.000 O
ATOM     51   S  IDS F   3     -19.542  51.695 172.5080  0.00  0.00     0.000 S
ATOM     52   O  IDS F   3     -16.481  51.975 176.1730  0.00  0.00     0.000 O
ATOM     54  HD  IDS F   3     -17.021  51.712 175.5490  0.00  0.00     0.000 HD
ATOM     54   C  IDS F   3     -13.538  53.771 173.6530  0.00  0.00     0.000 C
ATOM     55   O  IDS F   3     -13.334  54.114 172.4910  0.00  0.00     0.000 OA
ATOM     56   O  IDS F   3     -12.748  54.175 174.5170  0.00  0.00     0.000 OA
BRANCH 41 57
ATOM     57  O4  SGN F   4     -15.448  50.085 174.1140  0.00  0.00     0.000 O
BRANCH 57 61
ATOM     58  C1  SGN F   4     -12.818  46.975 173.7150  0.00  0.00     0.000 C
ATOM     59  C2  SGN F   4     -12.201  48.354 173.9960  0.00  0.00     0.000 C
ATOM     60  C3  SGN F   4     -13.240  49.332 174.5160  0.00  0.00     0.000 C
ATOM     61  C4  SGN F   4     -14.416  49.350 173.5430  0.00  0.00     0.000 C
ATOM     62  C5  SGN F   4     -14.916  47.914 173.2890  0.00  0.00     0.000 C
ATOM     63  O5  SGN F   4     -13.883  47.105 172.8150  0.00  0.00     0.000 O
ATOM     64   N  SGN F   4     -11.078  48.238 174.9060  0.00  0.00     0.000 N
ATOM     66  HD  SGN F   4     -11.450  47.931 174.1870  0.00  0.00     0.000 HD
ATOM     66   S  SGN F   4      -9.615  47.917 174.2620  0.00  0.00     0.000 S
ATOM     67   O  SGN F   4      -9.687  46.558 173.7600  0.00  0.00     0.000 OA
ATOM     68   O  SGN F   4      -9.364  48.882 173.1940  0.00  0.00     0.000 OA
ATOM     69   O  SGN F   4      -8.721  48.044 175.3910  0.00  0.00     0.000 OA
ATOM     70   O  SGN F   4     -12.687  50.640 174.5610  0.00  0.00     0.000 O
ATOM     72  HD  SGN F   4     -13.059  50.332 173.8420  0.00  0.00     0.000 HD
ATOM     72   C  SGN F   4     -15.995  47.807 172.2430  0.00  0.00     0.000 C
ATOM     73   O  SGN F   4     -15.467  48.316 171.0400  0.00  0.00     0.000 O
ATOM     74   S  SGN F   4     -15.874  47.856 169.6110  0.00  0.00     0.000 S
ATOM     75   O  SGN F   4     -17.255  47.504 169.6270  0.00  0.00     0.000 OA
ATOM     76   O  SGN F   4     -15.607  48.973 168.7060  0.00  0.00     0.000 OA
ATOM     77   O  SGN F   4     -15.078  46.712 169.3900  0.00  0.00     0.000 OA
BRANCH 58 78
ATOM     78  O4  IDS F   5     -13.228  46.359 174.9120  0.00  0.00     0.000 O
BRANCH 78 82
ATOM     79  C1  IDS F   5     -14.129  43.945 177.2600  0.00  0.00     0.000 C
ATOM     80  C2  IDS F   5     -13.327  45.174 177.6650  0.00  0.00     0.000 C
ATOM     81  C3  IDS F   5     -12.092  45.366 176.7820  0.00  0.00     0.000 C
ATOM     82  C4  IDS F   5     -12.461  45.251 175.2870  0.00  0.00     0.000 C
ATOM     83  C5  IDS F   5     -13.265  43.971 175.0500  0.00  0.00     0.000 C
ATOM     84  O5  IDS F   5     -14.406  43.941 175.8830  0.00  0.00     0.000 O
ATOM     85   O  IDS F   5     -13.417  42.804 177.6700  0.00  0.00     0.000 OA
ATOM     86   O  IDS F   5     -14.143  46.300 177.4980  0.00  0.00     0.000 O
ATOM     87   S  IDS F   5     -13.951  47.725 178.1120  0.00  0.00     0.000 S
ATOM     88   O  IDS F   5     -12.535  47.939 178.2610  0.00  0.00     0.000 OA
ATOM     89   O  IDS F   5     -14.546  48.650 177.1740  0.00  0.00     0.000 OA
ATOM     90   O  IDS F   5     -14.621  47.673 179.3840  0.00  0.00     0.000 OA
ATOM     91   O  IDS F   5     -11.160  44.353 177.1030  0.00  0.00     0.000 O
ATOM     93  HD  IDS F   5     -11.270  43.810 176.4380  0.00  0.00     0.000 HD
ATOM     93   O  IDS F   5     -14.800  43.746 173.2510  0.00  0.00     0.000 OA
ATOM     94   O  IDS F   5     -12.798  43.552 172.7500  0.00  0.00     0.000 OA
ATOM     95   C  IDS F   5     -13.647  43.741 173.6000  0.00  0.00     0.000 C
ENDBRANCH 78 82
ENDBRANCH 58 78
ENDBRANCH 57 61
ENDBRANCH 41 57
ENDBRANCH 40 44
ENDBRANCH 20 40
ENDBRANCH 19 23
ENDBRANCH 1 19
TORSDOF 8
ENDMDL
MODEL 71
REMARK VINA RESULT:      -5.2      3.070     11.788
FFDIST PL LJ 2322 74 36 -1
ROOT
ATOM      1  C1  IDS F   1     -16.795  56.373 171.2110  0.00  0.00     0.000 C
ATOM      2  C2  IDS F   1     -15.590  56.671 172.1180  0.00  0.00     0.000 C
ATOM      3  C3  IDS F   1     -14.247  56.723 171.3500  0.00  0.00     0.000 C
ATOM      4  C4  IDS F   1     -14.349  57.376 169.9520  0.00  0.00     0.000 C
ATOM      5  C5  IDS F   1     -15.660  56.971 169.2690  0.00  0.00     0.000 C
ATOM      6  O5  IDS F   1     -16.738  57.234 170.1040  0.00  0.00     0.000 O
ATOM      7   S  IDS F   1     -15.018  58.478 174.0430  0.00  0.00     0.000 S
ATOM      8   O  IDS F   1     -13.624  58.277 173.7850  0.00  0.00     0.000 OA
ATOM      9   O  IDS F   1     -15.326  59.873 174.1660  0.00  0.00     0.000 OA
ATOM     10   O  IDS F   1     -15.514  57.686 175.1440  0.00  0.00     0.000 OA
ATOM     11   O  IDS F   1     -15.756  57.924 172.7510  0.00  0.00     0.000 O
ATOM     12   O  IDS F   1     -13.757  55.394 171.1920  0.00  0.00     0.000 O
ATOM     14  HD  IDS F   1     -13.296  55.071 170.5340  0.00  0.00     0.000 HD
ATOM     14   O  IDS F   1     -14.321  58.769 170.1360  0.00  0.00     0.000 O
ATOM     16  HD  IDS F   1     -13.860  58.447 169.4770  0.00  0.00     0.000 HD
ATOM     16   O  IDS F   1     -17.049  57.958 167.6060  0.00  0.00     0.000 OA
ATOM     17   O  IDS F   1     -15.048  57.682 167.0640  0.00  0.00     0.000 OA
ATOM     18   C  IDS F   1     -15.927  57.574 167.9040  0.00  0.00     0.000 C
ENDROOT
BRANCH 1 19
ATOM     19  O4  SGN F   2     -17.963  56.647 171.9080  0.00  0.00     0.000 O
BRANCH 19 23
ATOM     20  C1  SGN F   2     -19.947  53.029 172.5150  0.00  0.00     0.000 C
ATOM     21  C2  SGN F   2     -20.450  53.862 171.3470  0.00  0.00     0.000 C
ATOM     22  C3  SGN F   2     -19.369  54.840 170.8650  0.00  0.00     0.000 C
ATOM     23  C4  SGN F   2     -18.996  55.707 172.1100  0.00  0.00     0.000 C
ATOM     24  C5  SGN F   2     -18.502  54.759 173.1520  0.00  0.00     0.000 C
ATOM     25  O5  SGN F   2     -19.516  53.887 173.5350  0.00  0.00     0.000 O
ATOM     26   N  SGN F   2     -20.996  52.953 170.3100  0.00  0.00     0.000 N
ATOM     28  HD  SGN F   2     -20.931  52.890 169.4490  0.00  0.00     0.000 HD
ATOM     28   S  SGN F   2     -22.566  52.402 170.5110  0.00  0.00     0.000 S
ATOM     29   O  SGN F   2     -22.679  51.897 171.8610  0.00  0.00     0.000 OA
ATOM     30   O  SGN F   2     -23.395  53.565 170.2860  0.00  0.00     0.000 OA
ATOM     31   O  SGN F   2     -22.783  51.412 169.5200  0.00  0.00     0.000 OA
ATOM     32   O  SGN F   2     -19.926  55.651 169.8380  0.00  0.00     0.000 O
ATOM     34  HD  SGN F   2     -19.861  55.589 168.9760  0.00  0.00     0.000 HD
ATOM     34   C  SGN F   2     -18.053  55.456 174.3920  0.00  0.00     0.000 C
ATOM     35   O  SGN F   2     -19.137  56.225 174.7900  0.00  0.00     0.000 O
ATOM     36   S  SGN F   2     -19.286  56.998 176.0960  0.00  0.00     0.000 S
ATOM     37   O  SGN F   2     -19.576  58.351 175.6930  0.00  0.00     0.000 OA
ATOM     38   O  SGN F   2     -20.370  56.331 176.7850  0.00  0.00     0.000 OA
ATOM     39   O  SGN F   2     -18.021  56.880 176.8090  0.00  0.00     0.000 OA
BRANCH 20 40
ATOM     40  O4  IDS F   3     -18.907  52.171 172.1280  0.00  0.00     0.000 O
BRANCH 40 44
ATOM     41  C1  IDS F   3     -17.303  49.075 171.9600  0.00  0.00     0.000 C
ATOM     42  C2  IDS F   3     -18.737  49.156 172.4180  0.00  0.00     0.000 C
ATOM     43  C3  IDS F   3     -18.956  50.240 173.5430  0.00  0.00     0.000 C
ATOM     44  C4  IDS F   3     -18.246  51.540 173.2170  0.00  0.00     0.000 C
ATOM     45  C5  IDS F   3     -16.796  51.238 172.8420  0.00  0.00     0.000 C
ATOM     46  O5  IDS F   3     -16.755  50.380 171.7230  0.00  0.00     0.000 O
ATOM     47   O  IDS F   3     -21.846  48.887 171.5580  0.00  0.00     0.000 OA
ATOM     48   O  IDS F   3     -20.931  48.952 169.3770  0.00  0.00     0.000 OA
ATOM     49   O  IDS F   3     -20.277  47.252 170.9540  0.00  0.00     0.000 OA
ATOM     50   O  IDS F   3     -19.563  49.440 171.2830  0.00  0.00     0.000 O
ATOM     51   S  IDS F   3     -20.720  48.583 170.7520  0.00  0.00     0.000 S
ATOM     52   O  IDS F   3     -18.415  49.767 174.7720  0.00  0.00     0.000 O
ATOM     54  HD  IDS F   3     -18.756  49.355 174.0900  0.00  0.00     0.000 HD
ATOM     54   C  IDS F   3     -15.912  52.469 172.6090  0.00  0.00     0.000 C
ATOM     55   O  IDS F   3     -15.682  52.881 171.4750  0.00  0.00     0.000 OA
ATOM     56   O  IDS F   3     -15.414  53.089 173.5580  0.00  0.00     0.000 OA
BRANCH 41 57
ATOM     57  O4  SGN F   4     -16.569  48.355 172.9080  0.00  0.00     0.000 O
BRANCH 57 61
ATOM     58  C1  SGN F   4     -13.693  45.444 172.8940  0.00  0.00     0.000 C
ATOM     59  C2  SGN F   4     -13.384  46.707 172.0740  0.00  0.00     0.000 C
ATOM     60  C3  SGN F   4     -14.298  47.857 172.4610  0.00  0.00     0.000 C
ATOM     61  C4  SGN F   4     -15.745  47.376 172.3660  0.00  0.00     0.000 C
ATOM     62  C5  SGN F   4     -15.926  46.076 173.1730  0.00  0.00     0.000 C
ATOM     63  O5  SGN F   4     -15.039  45.092 172.7350  0.00  0.00     0.000 O
ATOM     64   N  SGN F   4     -11.987  47.074 172.2030  0.00  0.00     0.000 N
ATOM     66  HD  SGN F   4     -12.546  46.432 172.0450  0.00  0.00     0.000 HD
ATOM     66   S  SGN F   4     -10.927  46.375 171.1810  0.00  0.00     0.000 S
ATOM     67   O  SGN F   4     -10.867  44.976 171.5610  0.00  0.00     0.000 OA
ATOM     68   O  SGN F   4     -11.421  46.551 169.8170  0.00  0.00     0.000 OA
ATOM     69   O  SGN F   4      -9.693  47.076 171.4540  0.00  0.00     0.000 OA
ATOM     70   O  SGN F   4     -14.131  48.931 171.5470  0.00  0.00     0.000 O
ATOM     72  HD  SGN F   4     -14.690  48.289 171.3900  0.00  0.00     0.000 HD
ATOM     72   C  SGN F   4     -17.289  45.447 173.0420  0.00  0.00     0.000 C
ATOM     73   O  SGN F   4     -17.488  45.158 171.6770  0.00  0.00     0.000 O
ATOM     74   S  SGN F   4     -18.350  43.988 171.1200  0.00  0.00     0.000 S
ATOM     75   O  SGN F   4     -19.446  43.774 172.0070  0.00  0.00     0.000 OA
ATOM     76   O  SGN F   4     -18.798  44.381 169.7850  0.00  0.00     0.000 OA
ATOM     77   O  SGN F   4     -17.473  42.885 171.1500  0.00  0.00     0.000 OA
BRANCH 58 78
ATOM     78  O4  IDS F   5     -13.366  45.636 174.2490  0.00  0.00     0.000 O
BRANCH 78 82
ATOM     79  C1  IDS F   5     -12.582  45.308 177.6290  0.00  0.00     0.000 C
ATOM     80  C2  IDS F   5     -11.627  45.995 176.6640  0.00  0.00     0.000 C
ATOM     81  C3  IDS F   5     -11.338  45.131 175.4340  0.00  0.00     0.000 C
ATOM     82  C4  IDS F   5     -12.648  44.584 174.8270  0.00  0.00     0.000 C
ATOM     83  C5  IDS F   5     -13.493  43.933 175.9230  0.00  0.00     0.000 C
ATOM     84  O5  IDS F   5     -13.735  44.848 176.9720  0.00  0.00     0.000 O
ATOM     85   O  IDS F   5     -11.882  44.275 178.2760  0.00  0.00     0.000 OA
ATOM     86   O  IDS F   5     -12.233  47.175 176.2170  0.00  0.00     0.000 O
ATOM     87   S  IDS F   5     -11.553  48.407 175.5360  0.00  0.00     0.000 S
ATOM     88   O  IDS F   5     -10.419  47.916 174.7990  0.00  0.00     0.000 OA
ATOM     89   O  IDS F   5     -12.553  48.992 174.6720  0.00  0.00     0.000 OA
ATOM     90   O  IDS F   5     -11.156  49.259 176.6260  0.00  0.00     0.000 OA
ATOM     91   O  IDS F   5     -10.531  44.044 175.8390  0.00  0.00     0.000 O
ATOM     93  HD  IDS F   5     -11.116  43.406 175.8680  0.00  0.00     0.000 HD
ATOM     93   O  IDS F   5     -15.858  43.761 175.7750  0.00  0.00     0.000 OA
ATOM     94   O  IDS F   5     -14.788  42.387 174.6510  0.00  0.00     0.000 OA
ATOM     95   C  IDS F   5     -14.791  43.326 175.4250  0.00  0.00     0.000 C
ENDBRANCH 78 82
ENDBRANCH 58 78
ENDBRANCH 57 61
ENDBRANCH 41 57
ENDBRANCH 40 44
ENDBRANCH 20 40
ENDBRANCH 19 23
ENDBRANCH 1 19
TORSDOF 8
ENDMDL
MODEL 72
REMARK VINA RESULT:      -5.2      3.568      6.541
FFDIST PL LJ 2322 74 36 -1
ROOT
ATOM      1  C1  IDS F   1     -10.225  45.661 174.6870  0.00  0.00     0.000 C
ATOM      2  C2  IDS F   1     -10.526  44.246 175.2100  0.00  0.00     0.000 C
ATOM      3  C3  IDS F   1      -9.386  43.238 174.9310  0.00  0.00     0.000 C
ATOM      4  C4  IDS F   1      -7.968  43.837 175.0800  0.00  0.00     0.000 C
ATOM      5  C5  IDS F   1      -7.935  45.270 174.5380  0.00  0.00     0.000 C
ATOM      6  O5  IDS F   1      -8.943  46.028 175.1210  0.00  0.00     0.000 O
ATOM      7   S  IDS F   1     -11.431  43.192 177.5270  0.00  0.00     0.000 S
ATOM      8   O  IDS F   1     -10.808  41.951 177.1790  0.00  0.00     0.000 OA
ATOM      9   O  IDS F   1     -11.176  43.534 178.8960  0.00  0.00     0.000 OA
ATOM     10   O  IDS F   1     -12.832  43.245 177.1770  0.00  0.00     0.000 OA
ATOM     11   O  IDS F   1     -10.721  44.277 176.6090  0.00  0.00     0.000 O
ATOM     12   O  IDS F   1      -9.527  42.740 173.6020  0.00  0.00     0.000 O
ATOM     14  HD  IDS F   1      -8.901  42.502 173.0540  0.00  0.00     0.000 HD
ATOM     14   O  IDS F   1      -7.656  43.842 176.4510  0.00  0.00     0.000 O
ATOM     16  HD  IDS F   1      -7.029  43.603 175.9030  0.00  0.00     0.000 HD
ATOM     16   O  IDS F   1      -6.600  47.191 174.9780  0.00  0.00     0.000 OA
ATOM     17   O  IDS F   1      -5.550  45.466 174.4330  0.00  0.00     0.000 OA
ATOM     18   C  IDS F   1      -6.619  46.010 174.6590  0.00  0.00     0.000 C
ENDROOT
BRANCH 1 19
ATOM     19  O4  SGN F   2     -11.136  46.549 175.2390  0.00  0.00     0.000 O
BRANCH 19 23
ATOM     20  C1  SGN F   2     -15.031  47.769 174.3840  0.00  0.00     0.000 C
ATOM     21  C2  SGN F   2     -14.873  46.919 175.6340  0.00  0.00     0.000 C
ATOM     22  C3  SGN F   2     -13.434  46.987 176.1650  0.00  0.00     0.000 C
ATOM     23  C4  SGN F   2     -12.525  46.508 174.9880  0.00  0.00     0.000 C
ATOM     24  C5  SGN F   2     -12.773  47.446 173.8540  0.00  0.00     0.000 C
ATOM     25  O5  SGN F   2     -14.094  47.355 173.4280  0.00  0.00     0.000 O
ATOM     26   N  SGN F   2     -15.930  47.293 176.6050  0.00  0.00     0.000 N
ATOM     28  HD  SGN F   2     -15.956  47.455 177.4550  0.00  0.00     0.000 HD
ATOM     28   S  SGN F   2     -17.444  46.605 176.4050  0.00  0.00     0.000 S
ATOM     29   O  SGN F   2     -17.823  46.781 175.0210  0.00  0.00     0.000 OA
ATOM     30   O  SGN F   2     -17.265  45.213 176.7550  0.00  0.00     0.000 OA
ATOM     31   O  SGN F   2     -18.314  47.258 177.3140  0.00  0.00     0.000 OA
ATOM     32   O  SGN F   2     -13.324  46.105 177.2750  0.00  0.00     0.000 O
ATOM     34  HD  SGN F   2     -13.350  46.267 178.1260  0.00  0.00     0.000 HD
ATOM     34   C  SGN F   2     -11.923  47.142 172.6660  0.00  0.00     0.000 C
ATOM     35   O  SGN F   2     -12.176  45.811 172.3690  0.00  0.00     0.000 O
ATOM     36   S  SGN F   2     -11.710  45.038 171.1400  0.00  0.00     0.000 S
ATOM     37   O  SGN F   2     -11.013  43.893 171.6670  0.00  0.00     0.000 OA
ATOM     38   O  SGN F   2     -12.931  44.725 170.4300  0.00  0.00     0.000 OA
ATOM     39   O  SGN F   2     -10.840  45.928 170.3800  0.00  0.00     0.000 OA
BRANCH 20 40
ATOM     40  O4  IDS F   3     -14.871  49.134 174.6630  0.00  0.00     0.000 O
BRANCH 40 44
ATOM     41  C1  IDS F   3     -15.890  52.419 174.0580  0.00  0.00     0.000 C
ATOM     42  C2  IDS F   3     -16.650  51.269 173.4460  0.00  0.00     0.000 C
ATOM     43  C3  IDS F   3     -15.709  50.240 172.7110  0.00  0.00     0.000 C
ATOM     44  C4  IDS F   3     -14.481  49.910 173.5380  0.00  0.00     0.000 C
ATOM     45  C5  IDS F   3     -13.828  51.211 174.0030  0.00  0.00     0.000 C
ATOM     46  O5  IDS F   3     -14.738  51.957 174.7790  0.00  0.00     0.000 O
ATOM     47   O  IDS F   3     -19.208  49.303 173.7090  0.00  0.00     0.000 OA
ATOM     48   O  IDS F   3     -19.274  50.185 175.9040  0.00  0.00     0.000 OA
ATOM     49   O  IDS F   3     -19.431  51.623 173.9770  0.00  0.00     0.000 OA
ATOM     50   O  IDS F   3     -17.396  50.615 174.4780  0.00  0.00     0.000 O
ATOM     51   S  IDS F   3     -18.919  50.422 174.5300  0.00  0.00     0.000 S
ATOM     52   O  IDS F   3     -15.248  50.804 171.4870  0.00  0.00     0.000 O
ATOM     54  HD  IDS F   3     -15.976  50.919 171.9430  0.00  0.00     0.000 HD
ATOM     54   C  IDS F   3     -12.498  51.044 174.7460  0.00  0.00     0.000 C
ATOM     55   O  IDS F   3     -12.448  51.067 175.9730  0.00  0.00     0.000 OA
ATOM     56   O  IDS F   3     -11.437  50.869 174.1320  0.00  0.00     0.000 OA
BRANCH 41 57
ATOM     57  O4  SGN F   4     -15.556  53.324 173.0460  0.00  0.00     0.000 O
BRANCH 57 61
ATOM     58  C1  SGN F   4     -15.694  57.381 172.5230  0.00  0.00     0.000 C
ATOM     59  C2  SGN F   4     -14.495  56.839 173.3170  0.00  0.00     0.000 C
ATOM     60  C3  SGN F   4     -14.323  55.344 173.1120  0.00  0.00     0.000 C
ATOM     61  C4  SGN F   4     -15.652  54.658 173.4230  0.00  0.00     0.000 C
ATOM     62  C5  SGN F   4     -16.789  55.318 172.6200  0.00  0.00     0.000 C
ATOM     63  O5  SGN F   4     -16.855  56.686 172.8840  0.00  0.00     0.000 O
ATOM     64   N  SGN F   4     -13.285  57.563 172.9780  0.00  0.00     0.000 N
ATOM     66  HD  SGN F   4     -14.118  57.629 173.2040  0.00  0.00     0.000 HD
ATOM     66   S  SGN F   4     -12.974  58.937 173.7980  0.00  0.00     0.000 S
ATOM     67   O  SGN F   4     -13.980  59.894 173.3750  0.00  0.00     0.000 OA
ATOM     68   O  SGN F   4     -13.061  58.646 175.2270  0.00  0.00     0.000 OA
ATOM     69   O  SGN F   4     -11.646  59.296 173.3510  0.00  0.00     0.000 OA
ATOM     70   O  SGN F   4     -13.348  54.845 174.0170  0.00  0.00     0.000 O
ATOM     72  HD  SGN F   4     -14.181  54.911 174.2440  0.00  0.00     0.000 HD
ATOM     72   C  SGN F   4     -18.165  54.799 172.9500  0.00  0.00     0.000 C
ATOM     73   O  SGN F   4     -18.387  55.039 174.3200  0.00  0.00     0.000 O
ATOM     74   S  SGN F   4     -19.773  55.306 174.9750  0.00  0.00     0.000 S
ATOM     75   O  SGN F   4     -20.758  54.555 174.2690  0.00  0.00     0.000 OA
ATOM     76   O  SGN F   4     -19.675  54.895 176.3740  0.00  0.00     0.000 OA
ATOM     77   O  SGN F   4     -19.975  56.688 174.7760  0.00  0.00     0.000 OA
BRANCH 58 78
ATOM     78  O4  IDS F   5     -15.454  57.299 171.1390  0.00  0.00     0.000 O
BRANCH 78 82
ATOM     79  C1  IDS F   5     -15.335  57.646 167.6720  0.00  0.00     0.000 C
ATOM     80  C2  IDS F   5     -14.185  58.121 168.5500  0.00  0.00     0.000 C
ATOM     81  C3  IDS F   5     -14.667  59.036 169.6770  0.00  0.00     0.000 C
ATOM     82  C4  IDS F   5     -15.876  58.416 170.4100  0.00  0.00     0.000 C
ATOM     83  C5  IDS F   5     -16.935  57.989 169.3910  0.00  0.00     0.000 C
ATOM     84  O5  IDS F   5     -16.379  57.104 168.4410  0.00  0.00     0.000 O
ATOM     85   O  IDS F   5     -15.755  58.729 166.8790  0.00  0.00     0.000 OA
ATOM     86   O  IDS F   5     -13.597  56.997 169.1420  0.00  0.00     0.000 O
ATOM     87   S  IDS F   5     -12.186  56.889 169.8070  0.00  0.00     0.000 S
ATOM     88   O  IDS F   5     -11.874  58.179 170.3630  0.00  0.00     0.000 OA
ATOM     89   O  IDS F   5     -12.298  55.869 170.8250  0.00  0.00     0.000 OA
ATOM     90   O  IDS F   5     -11.296  56.540 168.7300  0.00  0.00     0.000 OA
ATOM     91   O  IDS F   5     -15.060  60.269 169.1070  0.00  0.00     0.000 O
ATOM     93  HD  IDS F   5     -15.922  60.186 169.1120  0.00  0.00     0.000 HD
ATOM     93   O  IDS F   5     -18.492  56.248 169.8270  0.00  0.00     0.000 OA
ATOM     94   O  IDS F   5     -18.913  58.071 170.7190  0.00  0.00     0.000 OA
ATOM     95   C  IDS F   5     -18.187  57.399 170.0120  0.00  0.00     0.000 C
ENDBRANCH 78 82
ENDBRANCH 58 78
ENDBRANCH 57 61
ENDBRANCH 41 57
ENDBRANCH 40 44
ENDBRANCH 20 40
ENDBRANCH 19 23
ENDBRANCH 1 19
TORSDOF 8
ENDMDL
MODEL 73
REMARK VINA RESULT:      -5.2      2.509     12.095
FFDIST PL LJ 2322 74 36 -1
ROOT
ATOM      1  C1  IDS F   1     -20.454  55.680 171.1260  0.00  0.00     0.000 C
ATOM      2  C2  IDS F   1     -19.920  57.122 171.1030  0.00  0.00     0.000 C
ATOM      3  C3  IDS F   1     -19.132  57.459 169.8140  0.00  0.00     0.000 C
ATOM      4  C4  IDS F   1     -19.725  56.828 168.5320  0.00  0.00     0.000 C
ATOM      5  C5  IDS F   1     -20.238  55.414 168.8240  0.00  0.00     0.000 C
ATOM      6  O5  IDS F   1     -21.105  55.431 169.9090  0.00  0.00     0.000 O
ATOM      7   S  IDS F   1     -20.946  59.573 171.5950  0.00  0.00     0.000 S
ATOM      8   O  IDS F   1     -19.922  60.141 170.7720  0.00  0.00     0.000 OA
ATOM      9   O  IDS F   1     -22.226  60.149 171.3020  0.00  0.00     0.000 OA
ATOM     10   O  IDS F   1     -20.622  59.589 173.0030  0.00  0.00     0.000 OA
ATOM     11   O  IDS F   1     -20.993  58.038 171.1860  0.00  0.00     0.000 O
ATOM     12   O  IDS F   1     -17.791  57.001 169.9630  0.00  0.00     0.000 O
ATOM     14  HD  IDS F   1     -17.260  56.700 169.3480  0.00  0.00     0.000 HD
ATOM     14   O  IDS F   1     -20.793  57.643 168.1180  0.00  0.00     0.000 O
ATOM     16  HD  IDS F   1     -20.263  57.342 167.5030  0.00  0.00     0.000 HD
ATOM     16   O  IDS F   1     -21.900  54.010 167.8570  0.00  0.00     0.000 OA
ATOM     17   O  IDS F   1     -20.441  54.723 166.5390  0.00  0.00     0.000 OA
ATOM     18   C  IDS F   1     -20.894  54.681 167.6710  0.00  0.00     0.000 C
ENDROOT
BRANCH 1 19
ATOM     19  O4  SGN F   2     -21.387  55.561 172.1450  0.00  0.00     0.000 O
BRANCH 19 23
ATOM     20  C1  SGN F   2     -20.286  52.190 174.3400  0.00  0.00     0.000 C
ATOM     21  C2  SGN F   2     -21.541  52.038 173.4950  0.00  0.00     0.000 C
ATOM     22  C3  SGN F   2     -21.557  53.059 172.3490  0.00  0.00     0.000 C
ATOM     23  C4  SGN F   2     -21.451  54.462 173.0290  0.00  0.00     0.000 C
ATOM     24  C5  SGN F   2     -20.169  54.465 173.7940  0.00  0.00     0.000 C
ATOM     25  O5  SGN F   2     -20.205  53.509 174.8050  0.00  0.00     0.000 O
ATOM     26   N  SGN F   2     -21.676  50.619 173.0880  0.00  0.00     0.000 N
ATOM     28  HD  SGN F   2     -21.864  50.204 172.3510  0.00  0.00     0.000 HD
ATOM     28   S  SGN F   2     -22.365  49.559 174.1880  0.00  0.00     0.000 S
ATOM     29   O  SGN F   2     -21.694  49.750 175.4540  0.00  0.00     0.000 OA
ATOM     30   O  SGN F   2     -23.759  49.937 174.2390  0.00  0.00     0.000 OA
ATOM     31   O  SGN F   2     -22.202  48.254 173.6570  0.00  0.00     0.000 OA
ATOM     32   O  SGN F   2     -22.791  52.931 171.6520  0.00  0.00     0.000 O
ATOM     34  HD  SGN F   2     -22.979  52.517 170.9160  0.00  0.00     0.000 HD
ATOM     34   C  SGN F   2     -19.904  55.774 174.4580  0.00  0.00     0.000 C
ATOM     35   O  SGN F   2     -21.029  56.025 175.2310  0.00  0.00     0.000 O
ATOM     36   S  SGN F   2     -21.211  57.139 176.2560  0.00  0.00     0.000 S
ATOM     37   O  SGN F   2     -22.403  57.832 175.8390  0.00  0.00     0.000 OA
ATOM     38   O  SGN F   2     -21.329  56.446 177.5200  0.00  0.00     0.000 OA
ATOM     39   O  SGN F   2     -20.020  57.977 176.1920  0.00  0.00     0.000 OA
BRANCH 20 40
ATOM     40  O4  IDS F   3     -19.132  51.857 173.6170  0.00  0.00     0.000 O
BRANCH 40 44
ATOM     41  C1  IDS F   3     -16.124  50.258 172.8510  0.00  0.00     0.000 C
ATOM     42  C2  IDS F   3     -17.076  49.638 173.8420  0.00  0.00     0.000 C
ATOM     43  C3  IDS F   3     -17.548  50.655 174.9510  0.00  0.00     0.000 C
ATOM     44  C4  IDS F   3     -17.927  51.999 174.3570  0.00  0.00     0.000 C
ATOM     45  C5  IDS F   3     -16.803  52.474 173.4370  0.00  0.00     0.000 C
ATOM     46  O5  IDS F   3     -16.597  51.537 172.4030  0.00  0.00     0.000 O
ATOM     47   O  IDS F   3     -19.443  47.477 174.2970  0.00  0.00     0.000 OA
ATOM     48   O  IDS F   3     -19.493  47.491 171.9310  0.00  0.00     0.000 OA
ATOM     49   O  IDS F   3     -17.488  46.906 173.1320  0.00  0.00     0.000 OA
ATOM     50   O  IDS F   3     -18.203  49.118 173.1280  0.00  0.00     0.000 O
ATOM     51   S  IDS F   3     -18.687  47.661 173.1110  0.00  0.00     0.000 S
ATOM     52   O  IDS F   3     -16.483  50.890 175.8670  0.00  0.00     0.000 O
ATOM     54  HD  IDS F   3     -16.692  50.204 175.3810  0.00  0.00     0.000 HD
ATOM     54   C  IDS F   3     -16.984  53.882 172.8600  0.00  0.00     0.000 C
ATOM     55   O  IDS F   3     -17.421  54.052 171.7250  0.00  0.00     0.000 OA
ATOM     56   O  IDS F   3     -16.707  54.889 173.5250  0.00  0.00     0.000 OA
BRANCH 41 57
ATOM     57  O4  SGN F   4     -14.856  50.334 173.4340  0.00  0.00     0.000 O
BRANCH 57 61
ATOM     58  C1  SGN F   4     -11.869  47.538 173.4700  0.00  0.00     0.000 C
ATOM     59  C2  SGN F   4     -13.086  47.219 172.5880  0.00  0.00     0.000 C
ATOM     60  C3  SGN F   4     -13.924  48.459 172.3290  0.00  0.00     0.000 C
ATOM     61  C4  SGN F   4     -14.265  49.100 173.6730  0.00  0.00     0.000 C
ATOM     62  C5  SGN F   4     -12.981  49.319 174.4970  0.00  0.00     0.000 C
ATOM     63  O5  SGN F   4     -12.292  48.118 174.6720  0.00  0.00     0.000 O
ATOM     64   N  SGN F   4     -12.672  46.592 171.3480  0.00  0.00     0.000 N
ATOM     66  HD  SGN F   4     -12.594  46.591 172.2100  0.00  0.00     0.000 HD
ATOM     66   S  SGN F   4     -12.479  44.973 171.3500  0.00  0.00     0.000 S
ATOM     67   O  SGN F   4     -11.319  44.707 172.1790  0.00  0.00     0.000 OA
ATOM     68   O  SGN F   4     -13.693  44.369 171.8960  0.00  0.00     0.000 OA
ATOM     69   O  SGN F   4     -12.246  44.666 169.9560  0.00  0.00     0.000 OA
ATOM     70   O  SGN F   4     -15.142  48.092 171.6970  0.00  0.00     0.000 O
ATOM     72  HD  SGN F   4     -15.064  48.091 172.5590  0.00  0.00     0.000 HD
ATOM     72   C  SGN F   4     -13.218  49.830 175.8940  0.00  0.00     0.000 C
ATOM     73   O  SGN F   4     -14.019  48.881 176.5590  0.00  0.00     0.000 O
ATOM     74   S  SGN F   4     -13.995  48.593 178.0880  0.00  0.00     0.000 S
ATOM     75   O  SGN F   4     -13.713  49.812 178.7710  0.00  0.00     0.000 OA
ATOM     76   O  SGN F   4     -15.308  48.058 178.4460  0.00  0.00     0.000 OA
ATOM     77   O  SGN F   4     -12.925  47.687 178.2390  0.00  0.00     0.000 OA
BRANCH 58 78
ATOM     78  O4  IDS F   5     -10.961  48.369 172.7880  0.00  0.00     0.000 O
BRANCH 78 82
ATOM     79  C1  IDS F   5      -8.232  50.157 171.5600  0.00  0.00     0.000 C
ATOM     80  C2  IDS F   5      -8.784  48.951 170.8110  0.00  0.00     0.000 C
ATOM     81  C3  IDS F   5      -8.909  47.724 171.7170  0.00  0.00     0.000 C
ATOM     82  C4  IDS F   5      -9.614  48.089 173.0410  0.00  0.00     0.000 C
ATOM     83  C5  IDS F   5      -8.947  49.318 173.6610  0.00  0.00     0.000 C
ATOM     84  O5  IDS F   5      -8.944  50.395 172.7470  0.00  0.00     0.000 O
ATOM     85   O  IDS F   5      -6.862  49.940 171.7870  0.00  0.00     0.000 OA
ATOM     86   O  IDS F   5     -10.069  49.271 170.3560  0.00  0.00     0.000 O
ATOM     87   S  IDS F   5     -10.899  48.557 169.2400  0.00  0.00     0.000 S
ATOM     88   O  IDS F   5     -10.516  47.169 169.2450  0.00  0.00     0.000 OA
ATOM     89   O  IDS F   5     -12.288  48.740 169.5940  0.00  0.00     0.000 OA
ATOM     90   O  IDS F   5     -10.517  49.214 168.0180  0.00  0.00     0.000 OA
ATOM     91   O  IDS F   5      -7.607  47.255 172.0050  0.00  0.00     0.000 O
ATOM     93  HD  IDS F   5      -7.497  47.555 172.8100  0.00  0.00     0.000 HD
ATOM     93   O  IDS F   5     -10.104  50.798 175.1160  0.00  0.00     0.000 OA
ATOM     94   O  IDS F   5      -9.473  49.015 175.9670  0.00  0.00     0.000 OA
ATOM     95   C  IDS F   5      -9.542  49.739 174.9920  0.00  0.00     0.000 C
ENDBRANCH 78 82
ENDBRANCH 58 78
ENDBRANCH 57 61
ENDBRANCH 41 57
ENDBRANCH 40 44
ENDBRANCH 20 40
ENDBRANCH 19 23
ENDBRANCH 1 19
TORSDOF 8
ENDMDL
MODEL 74
REMARK VINA RESULT:      -5.1      3.163     11.062
FFDIST PL LJ 2322 74 36 -1
ROOT
ATOM      1  C1  IDS F   1     -16.565  57.986 170.4130  0.00  0.00     0.000 C
ATOM      2  C2  IDS F   1     -17.614  58.185 169.3070  0.00  0.00     0.000 C
ATOM      3  C3  IDS F   1     -17.353  59.440 168.4390  0.00  0.00     0.000 C
ATOM      4  C4  IDS F   1     -15.856  59.702 168.1490  0.00  0.00     0.000 C
ATOM      5  C5  IDS F   1     -15.010  59.379 169.3850  0.00  0.00     0.000 C
ATOM      6  O5  IDS F   1     -15.290  58.096 169.8390  0.00  0.00     0.000 O
ATOM      7   S  IDS F   1     -18.755  56.625 167.4200  0.00  0.00     0.000 S
ATOM      8   O  IDS F   1     -19.050  57.801 166.6580  0.00  0.00     0.000 OA
ATOM      9   O  IDS F   1     -18.220  55.588 166.5860  0.00  0.00     0.000 OA
ATOM     10   O  IDS F   1     -19.860  56.184 168.2390  0.00  0.00     0.000 OA
ATOM     11   O  IDS F   1     -17.620  57.071 168.4380  0.00  0.00     0.000 O
ATOM     12   O  IDS F   1     -17.889  60.579 169.1060  0.00  0.00     0.000 O
ATOM     14  HD  IDS F   1     -17.590  61.392 169.0930  0.00  0.00     0.000 HD
ATOM     14   O  IDS F   1     -15.481  58.862 167.0860  0.00  0.00     0.000 O
ATOM     16  HD  IDS F   1     -15.182  59.675 167.0730  0.00  0.00     0.000 HD
ATOM     16   O  IDS F   1     -12.748  58.721 169.7340  0.00  0.00     0.000 OA
ATOM     17   O  IDS F   1     -13.018  60.488 168.6470  0.00  0.00     0.000 OA
ATOM     18   C  IDS F   1     -13.510  59.541 169.2400  0.00  0.00     0.000 C
ENDROOT
BRANCH 1 19
ATOM     19  O4  SGN F   2     -16.693  56.705 170.9310  0.00  0.00     0.000 O
BRANCH 19 23
ATOM     20  C1  SGN F   2     -18.102  54.849 174.3900  0.00  0.00     0.000 C
ATOM     21  C2  SGN F   2     -19.083  54.898 173.2290  0.00  0.00     0.000 C
ATOM     22  C3  SGN F   2     -18.344  55.069 171.8940  0.00  0.00     0.000 C
ATOM     23  C4  SGN F   2     -17.509  56.382 172.0370  0.00  0.00     0.000 C
ATOM     24  C5  SGN F   2     -16.586  56.172 173.1910  0.00  0.00     0.000 C
ATOM     25  O5  SGN F   2     -17.310  56.004 174.3670  0.00  0.00     0.000 O
ATOM     26   N  SGN F   2     -19.985  53.724 173.3130  0.00  0.00     0.000 N
ATOM     28  HD  SGN F   2     -20.289  53.139 172.7520  0.00  0.00     0.000 HD
ATOM     28   S  SGN F   2     -21.300  53.829 174.3460  0.00  0.00     0.000 S
ATOM     29   O  SGN F   2     -20.812  54.294 175.6250  0.00  0.00     0.000 OA
ATOM     30   O  SGN F   2     -22.187  54.781 173.7160  0.00  0.00     0.000 OA
ATOM     31   O  SGN F   2     -21.882  52.538 174.4020  0.00  0.00     0.000 OA
ATOM     32   O  SGN F   2     -19.312  55.201 170.8600  0.00  0.00     0.000 O
ATOM     34  HD  SGN F   2     -19.617  54.616 170.2990  0.00  0.00     0.000 HD
ATOM     34   C  SGN F   2     -15.678  57.335 173.4150  0.00  0.00     0.000 C
ATOM     35   O  SGN F   2     -16.518  58.431 173.5490  0.00  0.00     0.000 O
ATOM     36   S  SGN F   2     -16.126  59.843 173.9730  0.00  0.00     0.000 S
ATOM     37   O  SGN F   2     -16.607  60.692 172.9130  0.00  0.00     0.000 OA
ATOM     38   O  SGN F   2     -16.791  60.032 175.2440  0.00  0.00     0.000 OA
ATOM     39   O  SGN F   2     -14.674  59.864 174.0980  0.00  0.00     0.000 OA
BRANCH 20 40
ATOM     40  O4  IDS F   3     -17.295  53.704 174.3360  0.00  0.00     0.000 O
BRANCH 40 44
ATOM     41  C1  IDS F   3     -15.758  50.815 175.5550  0.00  0.00     0.000 C
ATOM     42  C2  IDS F   3     -16.924  51.419 176.2970  0.00  0.00     0.000 C
ATOM     43  C3  IDS F   3     -16.750  52.965 176.5480  0.00  0.00     0.000 C
ATOM     44  C4  IDS F   3     -16.257  53.685 175.3070  0.00  0.00     0.000 C
ATOM     45  C5  IDS F   3     -15.038  52.948 174.7530  0.00  0.00     0.000 C
ATOM     46  O5  IDS F   3     -15.384  51.620 174.4280  0.00  0.00     0.000 O
ATOM     47   O  IDS F   3     -20.119  51.322 176.8060  0.00  0.00     0.000 OA
ATOM     48   O  IDS F   3     -20.078  49.962 174.8700  0.00  0.00     0.000 OA
ATOM     49   O  IDS F   3     -18.828  49.364 176.8410  0.00  0.00     0.000 OA
ATOM     50   O  IDS F   3     -18.120  51.165 175.5510  0.00  0.00     0.000 O
ATOM     51   S  IDS F   3     -19.361  50.402 176.0370  0.00  0.00     0.000 S
ATOM     52   O  IDS F   3     -15.777  53.177 177.5660  0.00  0.00     0.000 O
ATOM     54  HD  IDS F   3     -16.331  52.528 177.4170  0.00  0.00     0.000 HD
ATOM     54   C  IDS F   3     -14.347  53.631 173.5680  0.00  0.00     0.000 C
ATOM     55   O  IDS F   3     -14.567  53.275 172.4120  0.00  0.00     0.000 OA
ATOM     56   O  IDS F   3     -13.556  54.568 173.7390  0.00  0.00     0.000 OA
BRANCH 41 57
ATOM     57  O4  SGN F   4     -14.702  50.631 176.4520  0.00  0.00     0.000 O
BRANCH 57 61
ATOM     58  C1  SGN F   4     -13.741  47.058 174.7040  0.00  0.00     0.000 C
ATOM     59  C2  SGN F   4     -14.143  47.002 176.1870  0.00  0.00     0.000 C
ATOM     60  C3  SGN F   4     -14.852  48.274 176.6180  0.00  0.00     0.000 C
ATOM     61  C4  SGN F   4     -13.974  49.467 176.2430  0.00  0.00     0.000 C
ATOM     62  C5  SGN F   4     -13.583  49.389 174.7540  0.00  0.00     0.000 C
ATOM     63  O5  SGN F   4     -12.941  48.183 174.4710  0.00  0.00     0.000 O
ATOM     64   N  SGN F   4     -14.950  45.828 176.4560  0.00  0.00     0.000 N
ATOM     66  HD  SGN F   4     -14.227  46.129 176.0860  0.00  0.00     0.000 HD
ATOM     66   S  SGN F   4     -14.169  44.440 176.8040  0.00  0.00     0.000 S
ATOM     67   O  SGN F   4     -13.511  44.030 175.5780  0.00  0.00     0.000 OA
ATOM     68   O  SGN F   4     -13.212  44.710 177.8750  0.00  0.00     0.000 OA
ATOM     69   O  SGN F   4     -15.239  43.545 177.1840  0.00  0.00     0.000 OA
ATOM     70   O  SGN F   4     -15.016  48.276 178.0290  0.00  0.00     0.000 O
ATOM     72  HD  SGN F   4     -14.293  48.578 177.6590  0.00  0.00     0.000 HD
ATOM     72   C  SGN F   4     -12.611  50.452 174.3110  0.00  0.00     0.000 C
ATOM     73   O  SGN F   4     -11.445  50.306 175.0880  0.00  0.00     0.000 O
ATOM     74   S  SGN F   4     -10.002  50.660 174.6240  0.00  0.00     0.000 S
ATOM     75   O  SGN F   4     -10.074  51.781 173.7470  0.00  0.00     0.000 OA
ATOM     76   O  SGN F   4      -9.224  50.957 175.8260  0.00  0.00     0.000 OA
ATOM     77   O  SGN F   4      -9.588  49.511 173.9190  0.00  0.00     0.000 OA
BRANCH 58 78
ATOM     78  O4  IDS F   5     -14.880  47.054 173.8780  0.00  0.00     0.000 O
BRANCH 78 82
ATOM     79  C1  IDS F   5     -17.259  46.764 171.3460  0.00  0.00     0.000 C
ATOM     80  C2  IDS F   5     -17.205  45.764 172.4930  0.00  0.00     0.000 C
ATOM     81  C3  IDS F   5     -15.800  45.186 172.6810  0.00  0.00     0.000 C
ATOM     82  C4  IDS F   5     -14.742  46.309 172.7020  0.00  0.00     0.000 C
ATOM     83  C5  IDS F   5     -14.936  47.226 171.4930  0.00  0.00     0.000 C
ATOM     84  O5  IDS F   5     -16.252  47.736 171.4640  0.00  0.00     0.000 O
ATOM     85   O  IDS F   5     -17.179  46.048 170.1390  0.00  0.00     0.000 OA
ATOM     86   O  IDS F   5     -17.545  46.436 173.6730  0.00  0.00     0.000 O
ATOM     87   S  IDS F   5     -18.003  45.817 175.0340  0.00  0.00     0.000 S
ATOM     88   O  IDS F   5     -17.368  44.531 175.1550  0.00  0.00     0.000 OA
ATOM     89   O  IDS F   5     -17.570  46.737 176.0610  0.00  0.00     0.000 OA
ATOM     90   O  IDS F   5     -19.433  45.700 174.9230  0.00  0.00     0.000 OA
ATOM     91   O  IDS F   5     -15.531  44.322 171.5950  0.00  0.00     0.000 O
ATOM     93  HD  IDS F   5     -15.014  44.821 171.1110  0.00  0.00     0.000 HD
ATOM     93   O  IDS F   5     -14.250  49.500 171.4950  0.00  0.00     0.000 OA
ATOM     94   O  IDS F   5     -12.737  48.108 171.2250  0.00  0.00     0.000 OA
ATOM     95   C  IDS F   5     -13.918  48.346 171.3970  0.00  0.00     0.000 C
ENDBRANCH 78 82
ENDBRANCH 58 78
ENDBRANCH 57 61
ENDBRANCH 41 57
ENDBRANCH 40 44
ENDBRANCH 20 40
ENDBRANCH 19 23
ENDBRANCH 1 19
TORSDOF 8
ENDMDL
MODEL 75
REMARK VINA RESULT:      -5.1      3.989     10.724
FFDIST PL LJ 2322 74 36 -1
ROOT
ATOM      1  C1  IDS F   1     -20.252  48.979 172.4460  0.00  0.00     0.000 C
ATOM      2  C2  IDS F   1     -19.579  49.863 173.5080  0.00  0.00     0.000 C
ATOM      3  C3  IDS F   1     -19.143  51.246 172.9640  0.00  0.00     0.000 C
ATOM      4  C4  IDS F   1     -20.137  51.864 171.9530  0.00  0.00     0.000 C
ATOM      5  C5  IDS F   1     -20.714  50.776 171.0400  0.00  0.00     0.000 C
ATOM      6  O5  IDS F   1     -21.239  49.738 171.8000  0.00  0.00     0.000 O
ATOM      7   S  IDS F   1     -20.131  50.593 176.0510  0.00  0.00     0.000 S
ATOM      8   O  IDS F   1     -19.315  51.755 175.8700  0.00  0.00     0.000 OA
ATOM      9   O  IDS F   1     -21.365  50.923 176.7030  0.00  0.00     0.000 OA
ATOM     10   O  IDS F   1     -19.431  49.495 176.6760  0.00  0.00     0.000 OA
ATOM     11   O  IDS F   1     -20.470  50.100 174.5790  0.00  0.00     0.000 O
ATOM     12   O  IDS F   1     -17.877  51.109 172.3250  0.00  0.00     0.000 O
ATOM     14  HD  IDS F   1     -17.576  51.547 171.6410  0.00  0.00     0.000 HD
ATOM     14   O  IDS F   1     -21.175  52.458 172.6940  0.00  0.00     0.000 O
ATOM     16  HD  IDS F   1     -20.874  52.896 172.0100  0.00  0.00     0.000 HD
ATOM     16   O  IDS F   1     -22.732  50.534 169.8000  0.00  0.00     0.000 OA
ATOM     17   O  IDS F   1     -21.620  52.258 169.3910  0.00  0.00     0.000 OA
ATOM     18   C  IDS F   1     -21.745  51.222 170.0230  0.00  0.00     0.000 C
ENDROOT
BRANCH 1 19
ATOM     19  O4  SGN F   2     -20.874  47.912 173.0760  0.00  0.00     0.000 O
BRANCH 19 23
ATOM     20  C1  SGN F   2     -18.553  44.475 172.6330  0.00  0.00     0.000 C
ATOM     21  C2  SGN F   2     -19.562  44.729 171.5240  0.00  0.00     0.000 C
ATOM     22  C3  SGN F   2     -19.951  46.213 171.4660  0.00  0.00     0.000 C
ATOM     23  C4  SGN F   2     -20.507  46.562 172.8830  0.00  0.00     0.000 C
ATOM     24  C5  SGN F   2     -19.404  46.286 173.8500  0.00  0.00     0.000 C
ATOM     25  O5  SGN F   2     -19.083  44.932 173.8460  0.00  0.00     0.000 O
ATOM     26   N  SGN F   2     -19.041  44.156 170.2600  0.00  0.00     0.000 N
ATOM     28  HD  SGN F   2     -18.984  44.424 169.4380  0.00  0.00     0.000 HD
ATOM     28   S  SGN F   2     -19.266  42.515 170.0020  0.00  0.00     0.000 S
ATOM     29   O  SGN F   2     -18.825  41.824 171.1930  0.00  0.00     0.000 OA
ATOM     30   O  SGN F   2     -20.686  42.371 169.7750  0.00  0.00     0.000 OA
ATOM     31   O  SGN F   2     -18.520  42.176 168.8450  0.00  0.00     0.000 OA
ATOM     32   O  SGN F   2     -20.960  46.374 170.4770  0.00  0.00     0.000 O
ATOM     34  HD  SGN F   2     -20.903  46.642 169.6550  0.00  0.00     0.000 HD
ATOM     34   C  SGN F   2     -19.776  46.628 175.2540  0.00  0.00     0.000 C
ATOM     35   O  SGN F   2     -20.943  45.921 175.5040  0.00  0.00     0.000 O
ATOM     36   S  SGN F   2     -21.655  45.764 176.8430  0.00  0.00     0.000 S
ATOM     37   O  SGN F   2     -23.002  46.214 176.6000  0.00  0.00     0.000 OA
ATOM     38   O  SGN F   2     -21.538  44.355 177.1480  0.00  0.00     0.000 OA
ATOM     39   O  SGN F   2     -20.946  46.600 177.8040  0.00  0.00     0.000 OA
BRANCH 20 40
ATOM     40  O4  IDS F   3     -17.327  45.102 172.3690  0.00  0.00     0.000 O
BRANCH 40 44
ATOM     41  C1  IDS F   3     -14.077  46.235 172.9580  0.00  0.00     0.000 C
ATOM     42  C2  IDS F   3     -14.521  45.916 171.5530  0.00  0.00     0.000 C
ATOM     43  C3  IDS F   3     -15.205  44.501 171.4370  0.00  0.00     0.000 C
ATOM     44  C4  IDS F   3     -16.197  44.261 172.5600  0.00  0.00     0.000 C
ATOM     45  C5  IDS F   3     -15.528  44.582 173.8950  0.00  0.00     0.000 C
ATOM     46  O5  IDS F   3     -15.105  45.927 173.9120  0.00  0.00     0.000 O
ATOM     47   O  IDS F   3     -15.665  47.105 168.7680  0.00  0.00     0.000 OA
ATOM     48   O  IDS F   3     -16.070  49.016 170.1030  0.00  0.00     0.000 OA
ATOM     49   O  IDS F   3     -13.850  48.113 169.8600  0.00  0.00     0.000 OA
ATOM     50   O  IDS F   3     -15.419  46.943 171.1150  0.00  0.00     0.000 O
ATOM     51   S  IDS F   3     -15.243  47.857 169.8940  0.00  0.00     0.000 S
ATOM     52   O  IDS F   3     -14.214  43.483 171.5330  0.00  0.00     0.000 O
ATOM     54  HD  IDS F   3     -14.185  44.297 171.2380  0.00  0.00     0.000 HD
ATOM     54   C  IDS F   3     -16.367  44.265 175.1380  0.00  0.00     0.000 C
ATOM     55   O  IDS F   3     -16.999  45.144 175.7190  0.00  0.00     0.000 OA
ATOM     56   O  IDS F   3     -16.442  43.113 175.5860  0.00  0.00     0.000 OA
BRANCH 41 57
ATOM     57  O4  SGN F   4     -12.887  45.550 173.2190  0.00  0.00     0.000 O
BRANCH 57 61
ATOM     58  C1  SGN F   4     -11.867  48.226 176.1420  0.00  0.00     0.000 C
ATOM     59  C2  SGN F   4     -11.101  48.346 174.8150  0.00  0.00     0.000 C
ATOM     60  C3  SGN F   4     -11.811  47.604 173.6950  0.00  0.00     0.000 C
ATOM     61  C4  SGN F   4     -12.067  46.170 174.1530  0.00  0.00     0.000 C
ATOM     62  C5  SGN F   4     -12.783  46.169 175.5180  0.00  0.00     0.000 C
ATOM     63  O5  SGN F   4     -12.046  46.876 176.4670  0.00  0.00     0.000 O
ATOM     64   N  SGN F   4     -10.882  49.738 174.4720  0.00  0.00     0.000 N
ATOM     66  HD  SGN F   4     -10.827  49.137 175.0940  0.00  0.00     0.000 HD
ATOM     66   S  SGN F   4      -9.560  50.467 175.0900  0.00  0.00     0.000 S
ATOM     67   O  SGN F   4      -9.795  50.581 176.5170  0.00  0.00     0.000 OA
ATOM     68   O  SGN F   4      -8.397  49.634 174.7910  0.00  0.00     0.000 OA
ATOM     69   O  SGN F   4      -9.550  51.751 174.4250  0.00  0.00     0.000 OA
ATOM     70   O  SGN F   4     -10.976  47.557 172.5470  0.00  0.00     0.000 O
ATOM     72  HD  SGN F   4     -10.922  46.956 173.1690  0.00  0.00     0.000 HD
ATOM     72   C  SGN F   4     -12.970  44.800 176.1210  0.00  0.00     0.000 C
ATOM     73   O  SGN F   4     -11.689  44.237 176.2880  0.00  0.00     0.000 O
ATOM     74   S  SGN F   4     -11.289  43.221 177.3970  0.00  0.00     0.000 S
ATOM     75   O  SGN F   4     -12.416  42.394 177.6780  0.00  0.00     0.000 OA
ATOM     76   O  SGN F   4     -10.159  42.448 176.8850  0.00  0.00     0.000 OA
ATOM     77   O  SGN F   4     -10.993  44.040 178.5070  0.00  0.00     0.000 OA
BRANCH 58 78
ATOM     78  O4  IDS F   5     -13.097  48.907 176.0720  0.00  0.00     0.000 O
BRANCH 78 82
ATOM     79  C1  IDS F   5     -16.082  50.605 176.6680  0.00  0.00     0.000 C
ATOM     80  C2  IDS F   5     -14.937  51.269 175.9160  0.00  0.00     0.000 C
ATOM     81  C3  IDS F   5     -13.617  51.171 176.6830  0.00  0.00     0.000 C
ATOM     82  C4  IDS F   5     -13.370  49.728 177.1710  0.00  0.00     0.000 C
ATOM     83  C5  IDS F   5     -14.611  49.208 177.8990  0.00  0.00     0.000 C
ATOM     84  O5  IDS F   5     -15.748  49.300 177.0660  0.00  0.00     0.000 O
ATOM     85   O  IDS F   5     -16.426  51.429 177.7540  0.00  0.00     0.000 OA
ATOM     86   O  IDS F   5     -14.767  50.596 174.7000  0.00  0.00     0.000 O
ATOM     87   S  IDS F   5     -14.011  51.092 173.4240  0.00  0.00     0.000 S
ATOM     88   O  IDS F   5     -12.948  51.956 173.8650  0.00  0.00     0.000 OA
ATOM     89   O  IDS F   5     -13.512  49.906 172.7660  0.00  0.00     0.000 OA
ATOM     90   O  IDS F   5     -15.002  51.807 172.6630  0.00  0.00     0.000 OA
ATOM     91   O  IDS F   5     -13.696  52.027 177.8060  0.00  0.00     0.000 O
ATOM     93  HD  IDS F   5     -13.844  51.456 178.4390  0.00  0.00     0.000 HD
ATOM     93   O  IDS F   5     -15.130  46.894 178.0390  0.00  0.00     0.000 OA
ATOM     94   O  IDS F   5     -13.651  47.560 179.3300  0.00  0.00     0.000 OA
ATOM     95   C  IDS F   5     -14.460  47.804 178.4550  0.00  0.00     0.000 C
ENDBRANCH 78 82
ENDBRANCH 58 78
ENDBRANCH 57 61
ENDBRANCH 41 57
ENDBRANCH 40 44
ENDBRANCH 20 40
ENDBRANCH 19 23
ENDBRANCH 1 19
TORSDOF 8
ENDMDL
MODEL 76
REMARK VINA RESULT:      -5.1      3.256      5.989
FFDIST PL LJ 2322 74 36 -1
ROOT
ATOM      1  C1  IDS F   1      -8.754  47.017 172.2020  0.00  0.00     0.000 C
ATOM      2  C2  IDS F   1      -8.006  47.699 171.0460  0.00  0.00     0.000 C
ATOM      3  C3  IDS F   1      -6.476  47.466 171.0880  0.00  0.00     0.000 C
ATOM      4  C4  IDS F   1      -6.070  46.047 171.5490  0.00  0.00     0.000 C
ATOM      5  C5  IDS F   1      -6.996  45.565 172.6700  0.00  0.00     0.000 C
ATOM      6  O5  IDS F   1      -8.325  45.684 172.2810  0.00  0.00     0.000 O
ATOM      7   S  IDS F   1      -8.310  47.849 168.3650  0.00  0.00     0.000 S
ATOM      8   O  IDS F   1      -6.915  48.147 168.2460  0.00  0.00     0.000 OA
ATOM      9   O  IDS F   1      -8.717  46.875 167.3940  0.00  0.00     0.000 OA
ATOM     10   O  IDS F   1      -9.147  49.026 168.3760  0.00  0.00     0.000 OA
ATOM     11   O  IDS F   1      -8.468  47.200 169.8070  0.00  0.00     0.000 O
ATOM     12   O  IDS F   1      -5.892  48.413 171.9800  0.00  0.00     0.000 O
ATOM     14  HD  IDS F   1      -5.198  48.309 172.4860  0.00  0.00     0.000 HD
ATOM     14   O  IDS F   1      -6.189  45.194 170.4370  0.00  0.00     0.000 O
ATOM     16  HD  IDS F   1      -5.495  45.090 170.9430  0.00  0.00     0.000 HD
ATOM     16   O  IDS F   1      -7.695  43.429 173.4560  0.00  0.00     0.000 OA
ATOM     17   O  IDS F   1      -5.627  43.734 173.3860  0.00  0.00     0.000 OA
ATOM     18   C  IDS F   1      -6.753  44.164 173.1950  0.00  0.00     0.000 C
ENDROOT
BRANCH 1 19
ATOM     19  O4  SGN F   2     -10.112  47.015 171.9210  0.00  0.00     0.000 O
BRANCH 19 23
ATOM     20  C1  SGN F   2     -13.802  46.290 173.7250  0.00  0.00     0.000 C
ATOM     21  C2  SGN F   2     -12.690  46.726 174.6660  0.00  0.00     0.000 C
ATOM     22  C3  SGN F   2     -11.591  47.480 173.9030  0.00  0.00     0.000 C
ATOM     23  C4  SGN F   2     -11.095  46.498 172.7930  0.00  0.00     0.000 C
ATOM     24  C5  SGN F   2     -12.283  46.185 171.9450  0.00  0.00     0.000 C
ATOM     25  O5  SGN F   2     -13.251  45.521 172.6920  0.00  0.00     0.000 O
ATOM     26   N  SGN F   2     -13.287  47.455 175.8100  0.00  0.00     0.000 N
ATOM     28  HD  SGN F   2     -13.107  48.187 176.2370  0.00  0.00     0.000 HD
ATOM     28   S  SGN F   2     -13.909  46.543 177.0710  0.00  0.00     0.000 S
ATOM     29   O  SGN F   2     -14.772  45.536 176.4940  0.00  0.00     0.000 OA
ATOM     30   O  SGN F   2     -12.750  45.971 177.7170  0.00  0.00     0.000 OA
ATOM     31   O  SGN F   2     -14.590  47.442 177.9300  0.00  0.00     0.000 OA
ATOM     32   O  SGN F   2     -10.539  47.780 174.8130  0.00  0.00     0.000 O
ATOM     34  HD  SGN F   2     -10.359  48.512 175.2400  0.00  0.00     0.000 HD
ATOM     34   C  SGN F   2     -11.947  45.292 170.7990  0.00  0.00     0.000 C
ATOM     35   O  SGN F   2     -11.345  44.179 171.3680  0.00  0.00     0.000 O
ATOM     36   S  SGN F   2     -10.969  42.878 170.6690  0.00  0.00     0.000 S
ATOM     37   O  SGN F   2      -9.564  42.705 170.9420  0.00  0.00     0.000 OA
ATOM     38   O  SGN F   2     -11.826  41.884 171.2780  0.00  0.00     0.000 OA
ATOM     39   O  SGN F   2     -11.250  43.058 169.2500  0.00  0.00     0.000 OA
BRANCH 20 40
ATOM     40  O4  IDS F   3     -14.494  47.390 173.1980  0.00  0.00     0.000 O
BRANCH 40 44
ATOM     41  C1  IDS F   3     -17.219  49.398 172.3420  0.00  0.00     0.000 C
ATOM     42  C2  IDS F   3     -17.366  48.344 173.4100  0.00  0.00     0.000 C
ATOM     43  C3  IDS F   3     -16.832  46.933 172.9510  0.00  0.00     0.000 C
ATOM     44  C4  IDS F   3     -15.492  47.041 172.2480  0.00  0.00     0.000 C
ATOM     45  C5  IDS F   3     -15.580  48.116 171.1650  0.00  0.00     0.000 C
ATOM     46  O5  IDS F   3     -15.914  49.357 171.7450  0.00  0.00     0.000 O
ATOM     47   O  IDS F   3     -17.348  47.725 176.5880  0.00  0.00     0.000 OA
ATOM     48   O  IDS F   3     -16.389  49.886 176.6920  0.00  0.00     0.000 OA
ATOM     49   O  IDS F   3     -18.561  49.532 175.7120  0.00  0.00     0.000 OA
ATOM     50   O  IDS F   3     -16.672  48.784 174.5830  0.00  0.00     0.000 O
ATOM     51   S  IDS F   3     -17.273  49.004 175.9790  0.00  0.00     0.000 S
ATOM     52   O  IDS F   3     -17.744  46.357 172.0220  0.00  0.00     0.000 O
ATOM     54  HD  IDS F   3     -17.856  46.906 172.6820  0.00  0.00     0.000 HD
ATOM     54   C  IDS F   3     -14.337  48.253 170.2790  0.00  0.00     0.000 C
ATOM     55   O  IDS F   3     -13.498  49.125 170.4910  0.00  0.00     0.000 OA
ATOM     56   O  IDS F   3     -14.136  47.482 169.3320  0.00  0.00     0.000 OA
BRANCH 41 57
ATOM     57  O4  SGN F   4     -18.240  49.229 171.4020  0.00  0.00     0.000 O
BRANCH 57 61
ATOM     58  C1  SGN F   4     -21.992  50.861 171.3680  0.00  0.00     0.000 C
ATOM     59  C2  SGN F   4     -21.038  51.375 172.4570  0.00  0.00     0.000 C
ATOM     60  C3  SGN F   4     -19.595  51.023 172.1430  0.00  0.00     0.000 C
ATOM     61  C4  SGN F   4     -19.510  49.520 171.8830  0.00  0.00     0.000 C
ATOM     62  C5  SGN F   4     -20.547  49.107 170.8210  0.00  0.00     0.000 C
ATOM     63  O5  SGN F   4     -21.834  49.478 171.2110  0.00  0.00     0.000 O
ATOM     64   N  SGN F   4     -21.205  52.802 172.6540  0.00  0.00     0.000 N
ATOM     66  HD  SGN F   4     -21.607  52.038 172.5820  0.00  0.00     0.000 HD
ATOM     66   S  SGN F   4     -22.363  53.289 173.6950  0.00  0.00     0.000 S
ATOM     67   O  SGN F   4     -23.629  52.961 173.0680  0.00  0.00     0.000 OA
ATOM     68   O  SGN F   4     -22.174  52.575 174.9560  0.00  0.00     0.000 OA
ATOM     69   O  SGN F   4     -22.144  54.715 173.7880  0.00  0.00     0.000 OA
ATOM     70   O  SGN F   4     -18.773  51.322 173.2620  0.00  0.00     0.000 O
ATOM     72  HD  SGN F   4     -19.175  50.558 173.1900  0.00  0.00     0.000 HD
ATOM     72   C  SGN F   4     -20.634  47.622 170.5820  0.00  0.00     0.000 C
ATOM     73   O  SGN F   4     -20.984  47.019 171.8060  0.00  0.00     0.000 O
ATOM     74   S  SGN F   4     -21.805  45.707 171.9630  0.00  0.00     0.000 S
ATOM     75   O  SGN F   4     -21.492  44.846 170.8700  0.00  0.00     0.000 OA
ATOM     76   O  SGN F   4     -21.431  45.115 173.2470  0.00  0.00     0.000 OA
ATOM     77   O  SGN F   4     -23.145  46.139 171.8780  0.00  0.00     0.000 OA
BRANCH 58 78
ATOM     78  O4  IDS F   5     -21.781  51.544 170.1560  0.00  0.00     0.000 O
BRANCH 78 82
ATOM     79  C1  IDS F   5     -21.932  53.038 167.0100  0.00  0.00     0.000 C
ATOM     80  C2  IDS F   5     -22.030  53.871 168.2810  0.00  0.00     0.000 C
ATOM     81  C3  IDS F   5     -23.097  53.331 169.2360  0.00  0.00     0.000 C
ATOM     82  C4  IDS F   5     -22.945  51.807 169.4260  0.00  0.00     0.000 C
ATOM     83  C5  IDS F   5     -22.855  51.122 168.0610  0.00  0.00     0.000 C
ATOM     84  O5  IDS F   5     -21.800  51.671 167.3000  0.00  0.00     0.000 O
ATOM     85   O  IDS F   5     -23.061  53.316 166.2190  0.00  0.00     0.000 OA
ATOM     86   O  IDS F   5     -20.798  53.800 168.9430  0.00  0.00     0.000 O
ATOM     87   S  IDS F   5     -20.251  54.750 170.0590  0.00  0.00     0.000 S
ATOM     88   O  IDS F   5     -21.384  55.234 170.8020  0.00  0.00     0.000 OA
ATOM     89   O  IDS F   5     -19.369  53.946 170.8730  0.00  0.00     0.000 OA
ATOM     90   O  IDS F   5     -19.584  55.809 169.3480  0.00  0.00     0.000 OA
ATOM     91   O  IDS F   5     -24.366  53.599 168.6750  0.00  0.00     0.000 O
ATOM     93  HD  IDS F   5     -24.577  52.819 168.3620  0.00  0.00     0.000 HD
ATOM     93   O  IDS F   5     -21.753  49.041 167.7500  0.00  0.00     0.000 OA
ATOM     94   O  IDS F   5     -23.646  48.935 168.5890  0.00  0.00     0.000 OA
ATOM     95   C  IDS F   5     -22.742  49.611 168.1340  0.00  0.00     0.000 C
ENDBRANCH 78 82
ENDBRANCH 58 78
ENDBRANCH 57 61
ENDBRANCH 41 57
ENDBRANCH 40 44
ENDBRANCH 20 40
ENDBRANCH 19 23
ENDBRANCH 1 19
TORSDOF 8
ENDMDL
MODEL 77
REMARK VINA RESULT:      -5.1      4.640     13.017
FFDIST PL LJ 2322 74 36 -1
ROOT
ATOM      1  C1  IDS F   1     -20.702  47.293 175.3430  0.00  0.00     0.000 C
ATOM      2  C2  IDS F   1     -21.763  48.260 175.8950  0.00  0.00     0.000 C
ATOM      3  C3  IDS F   1     -21.172  49.343 176.8310  0.00  0.00     0.000 C
ATOM      4  C4  IDS F   1     -19.792  49.876 176.3810  0.00  0.00     0.000 C
ATOM      5  C5  IDS F   1     -18.937  48.734 175.8180  0.00  0.00     0.000 C
ATOM      6  O5  IDS F   1     -19.637  48.050 174.8330  0.00  0.00     0.000 O
ATOM      7   S  IDS F   1     -23.796  49.702 174.8520  0.00  0.00     0.000 S
ATOM      8   O  IDS F   1     -23.710  50.590 175.9720  0.00  0.00     0.000 OA
ATOM      9   O  IDS F   1     -23.920  50.429 173.6220  0.00  0.00     0.000 OA
ATOM     10   O  IDS F   1     -24.802  48.677 175.0130  0.00  0.00     0.000 OA
ATOM     11   O  IDS F   1     -22.405  48.935 174.8320  0.00  0.00     0.000 O
ATOM     12   O  IDS F   1     -21.039  48.796 178.1400  0.00  0.00     0.000 O
ATOM     14  HD  IDS F   1     -20.435  48.978 178.7330  0.00  0.00     0.000 HD
ATOM     14   O  IDS F   1     -20.018  50.836 175.3780  0.00  0.00     0.000 O
ATOM     16  HD  IDS F   1     -19.414  51.017 175.9710  0.00  0.00     0.000 HD
ATOM     16   O  IDS F   1     -17.142  48.604 174.2600  0.00  0.00     0.000 OA
ATOM     17   O  IDS F   1     -16.849  49.907 175.8700  0.00  0.00     0.000 OA
ATOM     18   C  IDS F   1     -17.568  49.110 175.2890  0.00  0.00     0.000 C
ENDROOT
BRANCH 1 19
ATOM     19  O4  SGN F   2     -21.254  46.568 174.2980  0.00  0.00     0.000 O
BRANCH 19 23
ATOM     20  C1  SGN F   2     -18.518  43.658 173.1010  0.00  0.00     0.000 C
ATOM     21  C2  SGN F   2     -19.592  44.002 172.0820  0.00  0.00     0.000 C
ATOM     22  C3  SGN F   2     -20.176  45.397 172.3500  0.00  0.00     0.000 C
ATOM     23  C4  SGN F   2     -20.720  45.354 173.8140  0.00  0.00     0.000 C
ATOM     24  C5  SGN F   2     -19.555  45.032 174.6890  0.00  0.00     0.000 C
ATOM     25  O5  SGN F   2     -19.058  43.767 174.3890  0.00  0.00     0.000 O
ATOM     26   N  SGN F   2     -19.048  43.789 170.7190  0.00  0.00     0.000 N
ATOM     28  HD  SGN F   2     -19.058  44.232 169.9750  0.00  0.00     0.000 HD
ATOM     28   S  SGN F   2     -19.063  42.227 170.1130  0.00  0.00     0.000 S
ATOM     29   O  SGN F   2     -18.490  41.364 171.1220  0.00  0.00     0.000 OA
ATOM     30   O  SGN F   2     -20.459  41.941 169.8710  0.00  0.00     0.000 OA
ATOM     31   O  SGN F   2     -18.323  42.249 168.9050  0.00  0.00     0.000 OA
ATOM     32   O  SGN F   2     -21.234  45.625 171.4280  0.00  0.00     0.000 O
ATOM     34  HD  SGN F   2     -21.244  46.068 170.6840  0.00  0.00     0.000 HD
ATOM     34   C  SGN F   2     -19.916  45.011 176.1370  0.00  0.00     0.000 C
ATOM     35   O  SGN F   2     -20.969  44.113 176.2360  0.00  0.00     0.000 O
ATOM     36   S  SGN F   2     -21.602  43.578 177.5160  0.00  0.00     0.000 S
ATOM     37   O  SGN F   2     -23.005  43.880 177.3870  0.00  0.00     0.000 OA
ATOM     38   O  SGN F   2     -21.288  42.165 177.5070  0.00  0.00     0.000 OA
ATOM     39   O  SGN F   2     -20.974  44.278 178.6290  0.00  0.00     0.000 OA
BRANCH 20 40
ATOM     40  O4  IDS F   3     -17.396  44.489 172.9700  0.00  0.00     0.000 O
BRANCH 40 44
ATOM     41  C1  IDS F   3     -14.341  46.040 172.2950  0.00  0.00     0.000 C
ATOM     42  C2  IDS F   3     -15.351  45.852 171.1910  0.00  0.00     0.000 C
ATOM     43  C3  IDS F   3     -15.894  44.374 171.1090  0.00  0.00     0.000 C
ATOM     44  C4  IDS F   3     -16.240  43.824 172.4800  0.00  0.00     0.000 C
ATOM     45  C5  IDS F   3     -15.062  44.060 173.4250  0.00  0.00     0.000 C
ATOM     46  O5  IDS F   3     -14.790  45.440 173.5200  0.00  0.00     0.000 O
ATOM     47   O  IDS F   3     -17.735  47.214 169.4770  0.00  0.00     0.000 OA
ATOM     48   O  IDS F   3     -17.638  48.831 171.2020  0.00  0.00     0.000 OA
ATOM     49   O  IDS F   3     -15.710  48.341 169.8440  0.00  0.00     0.000 OA
ATOM     50   O  IDS F   3     -16.430  46.770 171.3990  0.00  0.00     0.000 O
ATOM     51   S  IDS F   3     -16.908  47.861 170.4300  0.00  0.00     0.000 S
ATOM     52   O  IDS F   3     -14.890  43.526 170.5610  0.00  0.00     0.000 O
ATOM     54  HD  IDS F   3     -15.065  44.367 170.4500  0.00  0.00     0.000 HD
ATOM     54   C  IDS F   3     -15.212  43.442 174.8190  0.00  0.00     0.000 C
ATOM     55   O  IDS F   3     -15.578  44.118 175.7780  0.00  0.00     0.000 OA
ATOM     56   O  IDS F   3     -14.979  42.243 175.0180  0.00  0.00     0.000 OA
BRANCH 41 57
ATOM     57  O4  SGN F   4     -13.112  45.527 171.8710  0.00  0.00     0.000 O
BRANCH 57 61
ATOM     58  C1  SGN F   4      -9.275  46.473 172.9330  0.00  0.00     0.000 C
ATOM     59  C2  SGN F   4      -9.776  45.085 173.3620  0.00  0.00     0.000 C
ATOM     60  C3  SGN F   4     -11.022  44.682 172.5940  0.00  0.00     0.000 C
ATOM     61  C4  SGN F   4     -12.055  45.799 172.7300  0.00  0.00     0.000 C
ATOM     62  C5  SGN F   4     -11.430  47.150 172.3320  0.00  0.00     0.000 C
ATOM     63  O5  SGN F   4     -10.295  47.418 173.0980  0.00  0.00     0.000 O
ATOM     64   N  SGN F   4      -8.725  44.095 173.2240  0.00  0.00     0.000 N
ATOM     66  HD  SGN F   4      -8.933  44.879 173.5260  0.00  0.00     0.000 HD
ATOM     66   S  SGN F   4      -7.695  43.908 174.4740  0.00  0.00     0.000 S
ATOM     67   O  SGN F   4      -6.905  45.124 174.5280  0.00  0.00     0.000 OA
ATOM     68   O  SGN F   4      -8.483  43.713 175.6900  0.00  0.00     0.000 OA
ATOM     69   O  SGN F   4      -6.912  42.756 174.0890  0.00  0.00     0.000 OA
ATOM     70   O  SGN F   4     -11.574  43.502 173.1600  0.00  0.00     0.000 O
ATOM     72  HD  SGN F   4     -11.782  44.286 173.4620  0.00  0.00     0.000 HD
ATOM     72   C  SGN F   4     -12.329  48.339 172.5530  0.00  0.00     0.000 C
ATOM     73   O  SGN F   4     -12.644  48.379 173.9250  0.00  0.00     0.000 O
ATOM     74   S  SGN F   4     -12.945  49.668 174.7440  0.00  0.00     0.000 S
ATOM     75   O  SGN F   4     -13.601  50.602 173.8890  0.00  0.00     0.000 OA
ATOM     76   O  SGN F   4     -13.789  49.275 175.8710  0.00  0.00     0.000 OA
ATOM     77   O  SGN F   4     -11.665  50.144 175.0990  0.00  0.00     0.000 OA
BRANCH 58 78
ATOM     78  O4  IDS F   5      -8.807  46.447 171.6060  0.00  0.00     0.000 O
BRANCH 78 82
ATOM     79  C1  IDS F   5      -7.267  46.975 168.5240  0.00  0.00     0.000 C
ATOM     80  C2  IDS F   5      -6.863  45.809 169.4150  0.00  0.00     0.000 C
ATOM     81  C3  IDS F   5      -6.538  46.263 170.8390  0.00  0.00     0.000 C
ATOM     82  C4  IDS F   5      -7.644  47.191 171.3860  0.00  0.00     0.000 C
ATOM     83  C5  IDS F   5      -7.934  48.302 170.3750  0.00  0.00     0.000 C
ATOM     84  O5  IDS F   5      -8.274  47.752 169.1190  0.00  0.00     0.000 O
ATOM     85   O  IDS F   5      -6.112  47.721 168.2320  0.00  0.00     0.000 OA
ATOM     86   O  IDS F   5      -7.946  44.925 169.4920  0.00  0.00     0.000 O
ATOM     87   S  IDS F   5      -7.935  43.428 169.9460  0.00  0.00     0.000 S
ATOM     88   O  IDS F   5      -6.882  43.283 170.9160  0.00  0.00     0.000 OA
ATOM     89   O  IDS F   5      -9.238  43.172 170.5150  0.00  0.00     0.000 OA
ATOM     90   O  IDS F   5      -7.666  42.680 168.7470  0.00  0.00     0.000 OA
ATOM     91   O  IDS F   5      -5.317  46.975 170.8060  0.00  0.00     0.000 O
ATOM     93  HD  IDS F   5      -5.600  47.792 170.8530  0.00  0.00     0.000 HD
ATOM     93   O  IDS F   5     -10.037  49.400 170.2580  0.00  0.00     0.000 OA
ATOM     94   O  IDS F   5      -8.792  50.011 171.7990  0.00  0.00     0.000 OA
ATOM     95   C  IDS F   5      -8.984  49.297 170.8330  0.00  0.00     0.000 C
ENDBRANCH 78 82
ENDBRANCH 58 78
ENDBRANCH 57 61
ENDBRANCH 41 57
ENDBRANCH 40 44
ENDBRANCH 20 40
ENDBRANCH 19 23
ENDBRANCH 1 19
TORSDOF 8
ENDMDL
MODEL 78
REMARK VINA RESULT:      -5.0      4.434      9.592
FFDIST PL LJ 2322 74 36 -1
ROOT
ATOM      1  C1  IDS F   1     -21.365  45.378 175.6180  0.00  0.00     0.000 C
ATOM      2  C2  IDS F   1     -21.822  44.964 177.0260  0.00  0.00     0.000 C
ATOM      3  C3  IDS F   1     -22.944  45.867 177.5930  0.00  0.00     0.000 C
ATOM      4  C4  IDS F   1     -23.982  46.315 176.5370  0.00  0.00     0.000 C
ATOM      5  C5  IDS F   1     -23.289  46.620 175.2050  0.00  0.00     0.000 C
ATOM      6  O5  IDS F   1     -22.502  45.543 174.8150  0.00  0.00     0.000 O
ATOM      7   S  IDS F   1     -22.531  42.649 178.2270  0.00  0.00     0.000 S
ATOM      8   O  IDS F   1     -23.272  43.403 179.1930  0.00  0.00     0.000 OA
ATOM      9   O  IDS F   1     -23.285  41.522 177.7600  0.00  0.00     0.000 OA
ATOM     10   O  IDS F   1     -21.202  42.300 178.6730  0.00  0.00     0.000 OA
ATOM     11   O  IDS F   1     -22.323  43.642 177.0050  0.00  0.00     0.000 O
ATOM     12   O  IDS F   1     -22.352  47.030 178.1650  0.00  0.00     0.000 O
ATOM     14  HD  IDS F   1     -22.678  47.832 178.1970  0.00  0.00     0.000 HD
ATOM     14   O  IDS F   1     -24.892  45.257 176.3670  0.00  0.00     0.000 O
ATOM     16  HD  IDS F   1     -25.218  46.058 176.3990  0.00  0.00     0.000 HD
ATOM     16   O  IDS F   1     -23.974  46.602 172.9250  0.00  0.00     0.000 OA
ATOM     17   O  IDS F   1     -25.125  47.791 174.2060  0.00  0.00     0.000 OA
ATOM     18   C  IDS F   1     -24.185  47.027 174.0530  0.00  0.00     0.000 C
ENDROOT
BRANCH 1 19
ATOM     19  O4  SGN F   2     -20.599  44.357 175.0750  0.00  0.00     0.000 O
BRANCH 19 23
ATOM     20  C1  SGN F   2     -17.110  46.199 173.7230  0.00  0.00     0.000 C
ATOM     21  C2  SGN F   2     -17.942  45.511 172.6520  0.00  0.00     0.000 C
ATOM     22  C3  SGN F   2     -19.402  45.363 173.1040  0.00  0.00     0.000 C
ATOM     23  C4  SGN F   2     -19.353  44.559 174.4420  0.00  0.00     0.000 C
ATOM     24  C5  SGN F   2     -18.529  45.366 175.3900  0.00  0.00     0.000 C
ATOM     25  O5  SGN F   2     -17.224  45.482 174.9210  0.00  0.00     0.000 O
ATOM     26   N  SGN F   2     -17.740  46.214 171.3630  0.00  0.00     0.000 N
ATOM     28  HD  SGN F   2     -18.256  46.491 170.7250  0.00  0.00     0.000 HD
ATOM     28   S  SGN F   2     -16.379  45.819 170.4680  0.00  0.00     0.000 S
ATOM     29   O  SGN F   2     -15.242  45.878 171.3590  0.00  0.00     0.000 OA
ATOM     30   O  SGN F   2     -16.633  44.480 169.9860  0.00  0.00     0.000 OA
ATOM     31   O  SGN F   2     -16.306  46.748 169.4010  0.00  0.00     0.000 OA
ATOM     32   O  SGN F   2     -20.108  44.635 172.1060  0.00  0.00     0.000 O
ATOM     34  HD  SGN F   2     -20.623  44.912 171.4680  0.00  0.00     0.000 HD
ATOM     34   C  SGN F   2     -18.439  44.742 176.7420  0.00  0.00     0.000 C
ATOM     35   O  SGN F   2     -17.959  43.460 176.5200  0.00  0.00     0.000 O
ATOM     36   S  SGN F   2     -17.509  42.451 177.5710  0.00  0.00     0.000 S
ATOM     37   O  SGN F   2     -18.295  41.272 177.3120  0.00  0.00     0.000 OA
ATOM     38   O  SGN F   2     -16.091  42.293 177.3310  0.00  0.00     0.000 OA
ATOM     39   O  SGN F   2     -17.788  43.040 178.8750  0.00  0.00     0.000 OA
BRANCH 20 40
ATOM     40  O4  IDS F   3     -17.508  47.530 173.9120  0.00  0.00     0.000 O
BRANCH 40 44
ATOM     41  C1  IDS F   3     -18.215  50.876 173.2090  0.00  0.00     0.000 C
ATOM     42  C2  IDS F   3     -18.228  49.854 172.1000  0.00  0.00     0.000 C
ATOM     43  C3  IDS F   3     -16.930  48.960 172.0800  0.00  0.00     0.000 C
ATOM     44  C4  IDS F   3     -16.552  48.485 173.4710  0.00  0.00     0.000 C
ATOM     45  C5  IDS F   3     -16.535  49.682 174.4210  0.00  0.00     0.000 C
ATOM     46  O5  IDS F   3     -17.807  50.290 174.4540  0.00  0.00     0.000 O
ATOM     47   O  IDS F   3     -20.053  47.889 170.2870  0.00  0.00     0.000 OA
ATOM     48   O  IDS F   3     -21.679  48.381 171.9340  0.00  0.00     0.000 OA
ATOM     49   O  IDS F   3     -20.658  50.130 170.6300  0.00  0.00     0.000 OA
ATOM     50   O  IDS F   3     -19.395  49.037 172.2480  0.00  0.00     0.000 O
ATOM     51   S  IDS F   3     -20.521  48.849 171.2200  0.00  0.00     0.000 S
ATOM     52   O  IDS F   3     -15.833  49.723 171.5890  0.00  0.00     0.000 O
ATOM     54  HD  IDS F   3     -16.684  49.763 171.4350  0.00  0.00     0.000 HD
ATOM     54   C  IDS F   3     -16.045  49.380 175.8410  0.00  0.00     0.000 C
ATOM     55   O  IDS F   3     -16.837  49.192 176.7600  0.00  0.00     0.000 OA
ATOM     56   O  IDS F   3     -14.837  49.306 176.1000  0.00  0.00     0.000 OA
BRANCH 41 57
ATOM     57  O4  SGN F   4     -17.391  51.940 172.8270  0.00  0.00     0.000 O
BRANCH 57 61
ATOM     58  C1  SGN F   4     -17.532  55.969 173.5320  0.00  0.00     0.000 C
ATOM     59  C2  SGN F   4     -16.482  55.177 174.3260  0.00  0.00     0.000 C
ATOM     60  C3  SGN F   4     -16.239  53.808 173.7160  0.00  0.00     0.000 C
ATOM     61  C4  SGN F   4     -17.585  53.102 173.5640  0.00  0.00     0.000 C
ATOM     62  C5  SGN F   4     -18.576  54.007 172.8070  0.00  0.00     0.000 C
ATOM     63  O5  SGN F   4     -18.722  55.234 173.4540  0.00  0.00     0.000 O
ATOM     64   N  SGN F   4     -15.249  55.932 174.4420  0.00  0.00     0.000 N
ATOM     66  HD  SGN F   4     -16.111  55.952 174.5260  0.00  0.00     0.000 HD
ATOM     66   S  SGN F   4     -15.124  56.986 175.6790  0.00  0.00     0.000 S
ATOM     67   O  SGN F   4     -16.061  58.056 175.3910  0.00  0.00     0.000 OA
ATOM     68   O  SGN F   4     -15.459  56.283 176.9150  0.00  0.00     0.000 OA
ATOM     69   O  SGN F   4     -13.747  57.421 175.6050  0.00  0.00     0.000 OA
ATOM     70   O  SGN F   4     -15.431  53.030 174.5880  0.00  0.00     0.000 O
ATOM     72  HD  SGN F   4     -16.293  53.051 174.6710  0.00  0.00     0.000 HD
ATOM     72   C  SGN F   4     -19.976  53.456 172.7140  0.00  0.00     0.000 C
ATOM     73   O  SGN F   4     -20.446  53.280 174.0310  0.00  0.00     0.000 O
ATOM     74   S  SGN F   4     -21.933  53.382 174.4780  0.00  0.00     0.000 S
ATOM     75   O  SGN F   4     -22.756  52.908 173.4150  0.00  0.00     0.000 OA
ATOM     76   O  SGN F   4     -22.077  52.567 175.6830  0.00  0.00     0.000 OA
ATOM     77   O  SGN F   4     -22.130  54.765 174.6700  0.00  0.00     0.000 OA
BRANCH 58 78
ATOM     78  O4  IDS F   5     -17.046  56.299 172.2530  0.00  0.00     0.000 O
BRANCH 78 82
ATOM     79  C1  IDS F   5     -16.284  57.689 169.1490  0.00  0.00     0.000 C
ATOM     80  C2  IDS F   5     -15.301  57.769 170.3090  0.00  0.00     0.000 C
ATOM     81  C3  IDS F   5     -15.955  58.329 171.5740  0.00  0.00     0.000 C
ATOM     82  C4  IDS F   5     -17.295  57.618 171.8600  0.00  0.00     0.000 C
ATOM     83  C5  IDS F   5     -18.161  57.618 170.5990  0.00  0.00     0.000 C
ATOM     84  O5  IDS F   5     -17.465  57.027 169.5200  0.00  0.00     0.000 O
ATOM     85   O  IDS F   5     -16.520  58.995 168.6850  0.00  0.00     0.000 OA
ATOM     86   O  IDS F   5     -14.864  56.471 170.6000  0.00  0.00     0.000 O
ATOM     87   S  IDS F   5     -13.602  56.043 171.4180  0.00  0.00     0.000 S
ATOM     88   O  IDS F   5     -13.361  57.067 172.4000  0.00  0.00     0.000 OA
ATOM     89   O  IDS F   5     -13.928  54.772 172.0240  0.00  0.00     0.000 OA
ATOM     90   O  IDS F   5     -12.541  55.970 170.4490  0.00  0.00     0.000 OA
ATOM     91   O  IDS F   5     -16.201  59.706 171.3700  0.00  0.00     0.000 O
ATOM     93  HD  IDS F   5     -17.051  59.700 171.2070  0.00  0.00     0.000 HD
ATOM     93   O  IDS F   5     -19.821  55.968 170.1920  0.00  0.00     0.000 OA
ATOM     94   O  IDS F   5     -20.346  57.455 171.5380  0.00  0.00     0.000 OA
ATOM     95   C  IDS F   5     -19.522  56.974 170.7830  0.00  0.00     0.000 C
ENDBRANCH 78 82
ENDBRANCH 58 78
ENDBRANCH 57 61
ENDBRANCH 41 57
ENDBRANCH 40 44
ENDBRANCH 20 40
ENDBRANCH 19 23
ENDBRANCH 1 19
TORSDOF 8
ENDMDL
MODEL 79
REMARK VINA RESULT:      -5.0      5.342      7.953
FFDIST PL LJ 2322 74 36 -1
ROOT
ATOM      1  C1  IDS F   1      -8.349  48.251 172.2800  0.00  0.00     0.000 C
ATOM      2  C2  IDS F   1      -8.134  49.276 171.1550  0.00  0.00     0.000 C
ATOM      3  C3  IDS F   1      -7.545  50.617 171.6560  0.00  0.00     0.000 C
ATOM      4  C4  IDS F   1      -6.492  50.459 172.7780  0.00  0.00     0.000 C
ATOM      5  C5  IDS F   1      -6.904  49.342 173.7420  0.00  0.00     0.000 C
ATOM      6  O5  IDS F   1      -7.173  48.174 173.0390  0.00  0.00     0.000 O
ATOM      7   S  IDS F   1      -7.011  49.243 168.6970  0.00  0.00     0.000 S
ATOM      8   O  IDS F   1      -6.817  50.658 168.7920  0.00  0.00     0.000 OA
ATOM      9   O  IDS F   1      -5.838  48.592 168.1910  0.00  0.00     0.000 OA
ATOM     10   O  IDS F   1      -8.216  48.878 167.9880  0.00  0.00     0.000 OA
ATOM     11   O  IDS F   1      -7.234  48.760 170.1940  0.00  0.00     0.000 O
ATOM     12   O  IDS F   1      -8.608  51.430 172.1470  0.00  0.00     0.000 O
ATOM     14  HD  IDS F   1      -8.583  52.003 172.7950  0.00  0.00     0.000 HD
ATOM     14   O  IDS F   1      -5.271  50.128 172.1650  0.00  0.00     0.000 O
ATOM     16  HD  IDS F   1      -5.246  50.702 172.8130  0.00  0.00     0.000 HD
ATOM     16   O  IDS F   1      -5.724  47.877 175.2010  0.00  0.00     0.000 OA
ATOM     17   O  IDS F   1      -5.376  49.919 175.4950  0.00  0.00     0.000 OA
ATOM     18   C  IDS F   1      -5.944  49.035 174.8730  0.00  0.00     0.000 C
ENDROOT
BRANCH 1 19
ATOM     19  O4  SGN F   2      -8.579  47.004 171.7170  0.00  0.00     0.000 O
BRANCH 19 23
ATOM     20  C1  SGN F   2     -10.774  43.922 173.4700  0.00  0.00     0.000 C
ATOM     21  C2  SGN F   2      -9.904  44.727 174.4220  0.00  0.00     0.000 C
ATOM     22  C3  SGN F   2      -9.592  46.114 173.8400  0.00  0.00     0.000 C
ATOM     23  C4  SGN F   2      -8.902  45.851 172.4630  0.00  0.00     0.000 C
ATOM     24  C5  SGN F   2      -9.881  45.080 171.6410  0.00  0.00     0.000 C
ATOM     25  O5  SGN F   2     -10.138  43.843 172.2250  0.00  0.00     0.000 O
ATOM     26   N  SGN F   2     -10.531  44.725 175.7650  0.00  0.00     0.000 N
ATOM     28  HD  SGN F   2     -10.689  45.321 176.3730  0.00  0.00     0.000 HD
ATOM     28   S  SGN F   2     -10.261  43.393 176.7450  0.00  0.00     0.000 S
ATOM     29   O  SGN F   2     -10.539  42.212 175.9590  0.00  0.00     0.000 OA
ATOM     30   O  SGN F   2      -8.868  43.490 177.1210  0.00  0.00     0.000 OA
ATOM     31   O  SGN F   2     -11.111  43.532 177.8710  0.00  0.00     0.000 OA
ATOM     32   O  SGN F   2      -8.703  46.782 174.7280  0.00  0.00     0.000 O
ATOM     34  HD  SGN F   2      -8.861  47.378 175.3360  0.00  0.00     0.000 HD
ATOM     34   C  SGN F   2      -9.376  44.801 170.2650  0.00  0.00     0.000 C
ATOM     35   O  SGN F   2      -8.157  44.163 170.4470  0.00  0.00     0.000 O
ATOM     36   S  SGN F   2      -7.299  43.497 169.3770  0.00  0.00     0.000 S
ATOM     37   O  SGN F   2      -6.008  44.126 169.4960  0.00  0.00     0.000 OA
ATOM     38   O  SGN F   2      -7.318  42.093 169.7260  0.00  0.00     0.000 OA
ATOM     39   O  SGN F   2      -7.938  43.757 168.0940  0.00  0.00     0.000 OA
BRANCH 20 40
ATOM     40  O4  IDS F   3     -12.049  44.490 173.3310  0.00  0.00     0.000 O
BRANCH 40 44
ATOM     41  C1  IDS F   3     -15.366  45.405 173.9250  0.00  0.00     0.000 C
ATOM     42  C2  IDS F   3     -14.434  45.155 175.0840  0.00  0.00     0.000 C
ATOM     43  C3  IDS F   3     -13.660  43.788 174.9590  0.00  0.00     0.000 C
ATOM     44  C4  IDS F   3     -13.114  43.576 173.5590  0.00  0.00     0.000 C
ATOM     45  C5  IDS F   3     -14.232  43.816 172.5450  0.00  0.00     0.000 C
ATOM     46  O5  IDS F   3     -14.724  45.131 172.6710  0.00  0.00     0.000 O
ATOM     47   O  IDS F   3     -12.464  46.493 177.2760  0.00  0.00     0.000 OA
ATOM     48   O  IDS F   3     -12.687  48.385 175.8720  0.00  0.00     0.000 OA
ATOM     49   O  IDS F   3     -14.611  47.356 176.8920  0.00  0.00     0.000 OA
ATOM     50   O  IDS F   3     -13.511  46.247 175.1690  0.00  0.00     0.000 O
ATOM     51   S  IDS F   3     -13.306  47.185 176.3680  0.00  0.00     0.000 S
ATOM     52   O  IDS F   3     -14.550  42.709 175.2260  0.00  0.00     0.000 O
ATOM     54  HD  IDS F   3     -14.527  43.528 175.5070  0.00  0.00     0.000 HD
ATOM     54   C  IDS F   3     -13.866  43.514 171.0880  0.00  0.00     0.000 C
ATOM     55   O  IDS F   3     -13.541  44.412 170.3150  0.00  0.00     0.000 OA
ATOM     56   O  IDS F   3     -13.877  42.356 170.6500  0.00  0.00     0.000 OA
BRANCH 41 57
ATOM     57  O4  SGN F   4     -16.523  44.641 174.1070  0.00  0.00     0.000 O
BRANCH 57 61
ATOM     58  C1  SGN F   4     -20.391  45.865 173.5730  0.00  0.00     0.000 C
ATOM     59  C2  SGN F   4     -19.973  44.590 172.8250  0.00  0.00     0.000 C
ATOM     60  C3  SGN F   4     -18.689  44.009 173.3910  0.00  0.00     0.000 C
ATOM     61  C4  SGN F   4     -17.630  45.109 173.4100  0.00  0.00     0.000 C
ATOM     62  C5  SGN F   4     -18.175  46.358 174.1300  0.00  0.00     0.000 C
ATOM     63  O5  SGN F   4     -19.352  46.803 173.5300  0.00  0.00     0.000 O
ATOM     64   N  SGN F   4     -21.046  43.614 172.8350  0.00  0.00     0.000 N
ATOM     66  HD  SGN F   4     -20.832  44.440 172.6880  0.00  0.00     0.000 HD
ATOM     66   S  SGN F   4     -22.170  43.717 171.6580  0.00  0.00     0.000 S
ATOM     67   O  SGN F   4     -22.918  44.932 171.9230  0.00  0.00     0.000 OA
ATOM     68   O  SGN F   4     -21.481  43.767 170.3710  0.00  0.00     0.000 OA
ATOM     69   O  SGN F   4     -22.963  42.524 171.8540  0.00  0.00     0.000 OA
ATOM     70   O  SGN F   4     -18.223  42.965 172.5480  0.00  0.00     0.000 O
ATOM     72  HD  SGN F   4     -18.009  43.792 172.4010  0.00  0.00     0.000 HD
ATOM     72   C  SGN F   4     -17.253  47.549 174.0940  0.00  0.00     0.000 C
ATOM     73   O  SGN F   4     -17.038  47.872 172.7400  0.00  0.00     0.000 O
ATOM     74   S  SGN F   4     -16.751  49.299 172.1890  0.00  0.00     0.000 S
ATOM     75   O  SGN F   4     -16.001  50.017 173.1650  0.00  0.00     0.000 OA
ATOM     76   O  SGN F   4     -16.007  49.137 170.9410  0.00  0.00     0.000 OA
ATOM     77   O  SGN F   4     -18.035  49.864 172.0430  0.00  0.00     0.000 OA
BRANCH 58 78
ATOM     78  O4  IDS F   5     -20.762  45.568 174.8980  0.00  0.00     0.000 O
BRANCH 78 82
ATOM     79  C1  IDS F   5     -22.086  45.452 178.1200  0.00  0.00     0.000 C
ATOM     80  C2  IDS F   5     -22.500  44.438 177.0630  0.00  0.00     0.000 C
ATOM     81  C3  IDS F   5     -22.955  45.116 175.7680  0.00  0.00     0.000 C
ATOM     82  C4  IDS F   5     -21.939  46.190 175.3250  0.00  0.00     0.000 C
ATOM     83  C5  IDS F   5     -21.626  47.121 176.4980  0.00  0.00     0.000 C
ATOM     84  O5  IDS F   5     -21.165  46.381 177.6090  0.00  0.00     0.000 O
ATOM     85   O  IDS F   5     -23.250  46.064 178.6180  0.00  0.00     0.000 OA
ATOM     86   O  IDS F   5     -21.385  43.648 176.7560  0.00  0.00     0.000 O
ATOM     87   S  IDS F   5     -21.360  42.257 176.0420  0.00  0.00     0.000 S
ATOM     88   O  IDS F   5     -22.476  42.222 175.1340  0.00  0.00     0.000 OA
ATOM     89   O  IDS F   5     -20.093  42.184 175.3510  0.00  0.00     0.000 OA
ATOM     90   O  IDS F   5     -21.501  41.295 177.1030  0.00  0.00     0.000 OA
ATOM     91   O  IDS F   5     -24.202  45.735 176.0100  0.00  0.00     0.000 O
ATOM     93  HD  IDS F   5     -23.962  46.563 176.0920  0.00  0.00     0.000 HD
ATOM     93   O  IDS F   5     -19.575  48.307 176.6710  0.00  0.00     0.000 OA
ATOM     94   O  IDS F   5     -20.961  49.103 175.3510  0.00  0.00     0.000 OA
ATOM     95   C  IDS F   5     -20.662  48.243 176.1580  0.00  0.00     0.000 C
ENDBRANCH 78 82
ENDBRANCH 58 78
ENDBRANCH 57 61
ENDBRANCH 41 57
ENDBRANCH 40 44
ENDBRANCH 20 40
ENDBRANCH 19 23
ENDBRANCH 1 19
TORSDOF 8
ENDMDL
MODEL 80
REMARK VINA RESULT:      -5.0      3.607      5.431
FFDIST PL LJ 2322 74 36 -1
ROOT
ATOM      1  C1  IDS F   1      -8.058  48.800 172.0240  0.00  0.00     0.000 C
ATOM      2  C2  IDS F   1      -6.922  47.853 172.4460  0.00  0.00     0.000 C
ATOM      3  C3  IDS F   1      -5.513  48.448 172.2090  0.00  0.00     0.000 C
ATOM      4  C4  IDS F   1      -5.414  49.963 172.5050  0.00  0.00     0.000 C
ATOM      5  C5  IDS F   1      -6.687  50.680 172.0420  0.00  0.00     0.000 C
ATOM      6  O5  IDS F   1      -7.809  50.063 172.5800  0.00  0.00     0.000 O
ATOM      7   S  IDS F   1      -6.361  46.355 174.6240  0.00  0.00     0.000 S
ATOM      8   O  IDS F   1      -4.976  46.393 174.2640  0.00  0.00     0.000 OA
ATOM      9   O  IDS F   1      -6.540  46.602 176.0250  0.00  0.00     0.000 OA
ATOM     10   O  IDS F   1      -7.038  45.165 174.1640  0.00  0.00     0.000 OA
ATOM     11   O  IDS F   1      -7.023  47.558 173.8240  0.00  0.00     0.000 O
ATOM     12   O  IDS F   1      -5.145  48.229 170.8500  0.00  0.00     0.000 O
ATOM     14  HD  IDS F   1      -4.656  48.734 170.3430  0.00  0.00     0.000 HD
ATOM     14   O  IDS F   1      -5.266  50.111 173.8950  0.00  0.00     0.000 O
ATOM     16  HD  IDS F   1      -4.778  50.616 173.3890  0.00  0.00     0.000 HD
ATOM     16   O  IDS F   1      -7.804  52.680 172.6900  0.00  0.00     0.000 OA
ATOM     17   O  IDS F   1      -5.797  52.902 172.1430  0.00  0.00     0.000 OA
ATOM     18   C  IDS F   1      -6.759  52.170 172.3090  0.00  0.00     0.000 C
ENDROOT
BRANCH 1 19
ATOM     19  O4  SGN F   2      -9.254  48.329 172.5440  0.00  0.00     0.000 O
BRANCH 19 23
ATOM     20  C1  SGN F   2     -12.232  45.722 171.2310  0.00  0.00     0.000 C
ATOM     21  C2  SGN F   2     -11.421  45.239 172.4220  0.00  0.00     0.000 C
ATOM     22  C3  SGN F   2     -10.773  46.420 173.1590  0.00  0.00     0.000 C
ATOM     23  C4  SGN F   2      -9.902  47.159 172.0930  0.00  0.00     0.000 C
ATOM     24  C5  SGN F   2     -10.836  47.589 171.0100  0.00  0.00     0.000 C
ATOM     25  O5  SGN F   2     -11.406  46.480 170.3920  0.00  0.00     0.000 O
ATOM     26   N  SGN F   2     -12.271  44.355 173.2560  0.00  0.00     0.000 N
ATOM     28  HD  SGN F   2     -12.429  44.272 174.1030  0.00  0.00     0.000 HD
ATOM     28   S  SGN F   2     -12.418  42.753 172.7870  0.00  0.00     0.000 S
ATOM     29   O  SGN F   2     -12.751  42.741 171.3800  0.00  0.00     0.000 OA
ATOM     30   O  SGN F   2     -11.121  42.173 173.0510  0.00  0.00     0.000 OA
ATOM     31   O  SGN F   2     -13.419  42.176 173.6070  0.00  0.00     0.000 OA
ATOM     32   O  SGN F   2      -9.956  45.902 174.2030  0.00  0.00     0.000 O
ATOM     34  HD  SGN F   2     -10.114  45.819 175.0500  0.00  0.00     0.000 HD
ATOM     34   C  SGN F   2     -10.147  48.364 169.9370  0.00  0.00     0.000 C
ATOM     35   O  SGN F   2      -9.112  47.548 169.5060  0.00  0.00     0.000 O
ATOM     36   S  SGN F   2      -8.204  47.773 168.3010  0.00  0.00     0.000 S
ATOM     37   O  SGN F   2      -6.866  47.726 168.8340  0.00  0.00     0.000 OA
ATOM     38   O  SGN F   2      -8.530  46.689 167.4000  0.00  0.00     0.000 OA
ATOM     39   O  SGN F   2      -8.546  49.076 167.7460  0.00  0.00     0.000 OA
BRANCH 20 40
ATOM     40  O4  IDS F   3     -13.342  46.478 171.6340  0.00  0.00     0.000 O
BRANCH 40 44
ATOM     41  C1  IDS F   3     -16.458  47.906 172.3030  0.00  0.00     0.000 C
ATOM     42  C2  IDS F   3     -15.979  46.727 173.1130  0.00  0.00     0.000 C
ATOM     43  C3  IDS F   3     -15.467  45.538 172.2140  0.00  0.00     0.000 C
ATOM     44  C4  IDS F   3     -14.575  46.027 171.0890  0.00  0.00     0.000 C
ATOM     45  C5  IDS F   3     -15.274  47.174 170.3600  0.00  0.00     0.000 C
ATOM     46  O5  IDS F   3     -15.530  48.231 171.2570  0.00  0.00     0.000 O
ATOM     47   O  IDS F   3     -14.547  45.760 175.8510  0.00  0.00     0.000 OA
ATOM     48   O  IDS F   3     -13.987  48.053 176.0080  0.00  0.00     0.000 OA
ATOM     49   O  IDS F   3     -16.284  47.337 175.8840  0.00  0.00     0.000 OA
ATOM     50   O  IDS F   3     -14.941  47.171 173.9940  0.00  0.00     0.000 O
ATOM     51   S  IDS F   3     -14.936  47.085 175.5270  0.00  0.00     0.000 S
ATOM     52   O  IDS F   3     -16.579  44.884 171.6100  0.00  0.00     0.000 O
ATOM     54  HD  IDS F   3     -16.492  45.312 172.3580  0.00  0.00     0.000 HD
ATOM     54   C  IDS F   3     -14.549  47.691 169.1120  0.00  0.00     0.000 C
ATOM     55   O  IDS F   3     -13.847  48.698 169.1560  0.00  0.00     0.000 OA
ATOM     56   O  IDS F   3     -14.640  47.102 168.0270  0.00  0.00     0.000 OA
BRANCH 41 57
ATOM     57  O4  SGN F   4     -17.735  47.622 171.8110  0.00  0.00     0.000 O
BRANCH 57 61
ATOM     58  C1  SGN F   4     -20.724  50.418 171.7970  0.00  0.00     0.000 C
ATOM     59  C2  SGN F   4     -20.642  49.506 170.5630  0.00  0.00     0.000 C
ATOM     60  C3  SGN F   4     -19.790  48.278 170.8360  0.00  0.00     0.000 C
ATOM     61  C4  SGN F   4     -18.438  48.739 171.3750  0.00  0.00     0.000 C
ATOM     62  C5  SGN F   4     -18.640  49.692 172.5680  0.00  0.00     0.000 C
ATOM     63  O5  SGN F   4     -19.434  50.780 172.2060  0.00  0.00     0.000 O
ATOM     64   N  SGN F   4     -21.969  49.140 170.1060  0.00  0.00     0.000 N
ATOM     66  HD  SGN F   4     -21.451  49.789 170.3540  0.00  0.00     0.000 HD
ATOM     66   S  SGN F   4     -22.719  50.158 169.0770  0.00  0.00     0.000 S
ATOM     67   O  SGN F   4     -23.025  51.351 169.8440  0.00  0.00     0.000 OA
ATOM     68   O  SGN F   4     -21.810  50.438 167.9670  0.00  0.00     0.000 OA
ATOM     69   O  SGN F   4     -23.905  49.426 168.6940  0.00  0.00     0.000 OA
ATOM     70   O  SGN F   4     -19.563  47.573 169.6240  0.00  0.00     0.000 O
ATOM     72  HD  SGN F   4     -19.046  48.222 169.8710  0.00  0.00     0.000 HD
ATOM     72   C  SGN F   4     -17.369  50.306 173.0960  0.00  0.00     0.000 C
ATOM     73   O  SGN F   4     -16.782  51.030 172.0390  0.00  0.00     0.000 O
ATOM     74   S  SGN F   4     -15.903  52.304 172.1980  0.00  0.00     0.000 S
ATOM     75   O  SGN F   4     -15.163  52.192 173.4120  0.00  0.00     0.000 OA
ATOM     76   O  SGN F   4     -15.027  52.372 171.0300  0.00  0.00     0.000 OA
ATOM     77   O  SGN F   4     -16.845  53.350 172.2940  0.00  0.00     0.000 OA
BRANCH 58 78
ATOM     78  O4  IDS F   5     -21.437  49.791 172.8360  0.00  0.00     0.000 O
BRANCH 78 82
ATOM     79  C1  IDS F   5     -23.349  48.939 175.6220  0.00  0.00     0.000 C
ATOM     80  C2  IDS F   5     -23.854  48.672 174.2110  0.00  0.00     0.000 C
ATOM     81  C3  IDS F   5     -23.783  49.923 173.3330  0.00  0.00     0.000 C
ATOM     82  C4  IDS F   5     -22.400  50.598 173.4490  0.00  0.00     0.000 C
ATOM     83  C5  IDS F   5     -22.039  50.790 174.9230  0.00  0.00     0.000 C
ATOM     84  O5  IDS F   5     -22.088  49.556 175.6090  0.00  0.00     0.000 O
ATOM     85   O  IDS F   5     -24.318  49.705 176.2950  0.00  0.00     0.000 OA
ATOM     86   O  IDS F   5     -23.028  47.702 173.6300  0.00  0.00     0.000 O
ATOM     87   S  IDS F   5     -23.323  46.815 172.3760  0.00  0.00     0.000 S
ATOM     88   O  IDS F   5     -24.178  47.577 171.5050  0.00  0.00     0.000 OA
ATOM     89   O  IDS F   5     -22.041  46.534 171.7720  0.00  0.00     0.000 OA
ATOM     90   O  IDS F   5     -23.989  45.650 172.8970  0.00  0.00     0.000 OA
ATOM     91   O  IDS F   5     -24.774  50.829 173.7760  0.00  0.00     0.000 O
ATOM     93  HD  IDS F   5     -24.294  51.393 174.2240  0.00  0.00     0.000 HD
ATOM     93   O  IDS F   5     -19.791  50.913 175.6790  0.00  0.00     0.000 OA
ATOM     94   O  IDS F   5     -20.534  52.634 174.7950  0.00  0.00     0.000 OA
ATOM     95   C  IDS F   5     -20.709  51.484 175.1490  0.00  0.00     0.000 C
ENDBRANCH 78 82
ENDBRANCH 58 78
ENDBRANCH 57 61
ENDBRANCH 41 57
ENDBRANCH 40 44
ENDBRANCH 20 40
ENDBRANCH 19 23
ENDBRANCH 1 19
TORSDOF 8
ENDMDL
MODEL 81
REMARK VINA RESULT:      -5.0      3.323     11.934
FFDIST PL LJ 2322 74 36 -1
ROOT
ATOM      1  C1  IDS F   1     -19.097  57.069 169.0170  0.00  0.00     0.000 C
ATOM      2  C2  IDS F   1     -18.643  57.105 167.5480  0.00  0.00     0.000 C
ATOM      3  C3  IDS F   1     -19.598  56.345 166.5970  0.00  0.00     0.000 C
ATOM      4  C4  IDS F   1     -21.095  56.502 166.9530  0.00  0.00     0.000 C
ATOM      5  C5  IDS F   1     -21.284  56.490 168.4740  0.00  0.00     0.000 C
ATOM      6  O5  IDS F   1     -20.451  57.429 169.0700  0.00  0.00     0.000 O
ATOM      7   S  IDS F   1     -17.804  59.014 165.8290  0.00  0.00     0.000 S
ATOM      8   O  IDS F   1     -18.210  58.178 164.7400  0.00  0.00     0.000 OA
ATOM      9   O  IDS F   1     -18.225  60.370 165.6270  0.00  0.00     0.000 OA
ATOM     10   O  IDS F   1     -16.400  58.894 166.1480  0.00  0.00     0.000 OA
ATOM     11   O  IDS F   1     -18.578  58.442 167.0930  0.00  0.00     0.000 O
ATOM     12   O  IDS F   1     -19.270  54.959 166.6280  0.00  0.00     0.000 O
ATOM     14  HD  IDS F   1     -19.805  54.283 166.5400  0.00  0.00     0.000 HD
ATOM     14   O  IDS F   1     -21.524  57.736 166.4320  0.00  0.00     0.000 O
ATOM     16  HD  IDS F   1     -22.059  57.061 166.3440  0.00  0.00     0.000 HD
ATOM     16   O  IDS F   1     -22.914  57.386 169.9600  0.00  0.00     0.000 OA
ATOM     17   O  IDS F   1     -23.654  56.143 168.4490  0.00  0.00     0.000 OA
ATOM     18   C  IDS F   1     -22.699  56.684 168.9820  0.00  0.00     0.000 C
ENDROOT
BRANCH 1 19
ATOM     19  O4  SGN F   2     -18.374  58.010 169.7350  0.00  0.00     0.000 O
BRANCH 19 23
ATOM     20  C1  SGN F   2     -17.375  56.486 173.4860  0.00  0.00     0.000 C
ATOM     21  C2  SGN F   2     -18.730  57.170 173.3990  0.00  0.00     0.000 C
ATOM     22  C3  SGN F   2     -19.240  57.193 171.9510  0.00  0.00     0.000 C
ATOM     23  C4  SGN F   2     -18.137  57.928 171.1240  0.00  0.00     0.000 C
ATOM     24  C5  SGN F   2     -16.886  57.131 171.2890  0.00  0.00     0.000 C
ATOM     25  O5  SGN F   2     -16.482  57.130 172.6200  0.00  0.00     0.000 O
ATOM     26   N  SGN F   2     -19.645  56.551 174.3890  0.00  0.00     0.000 N
ATOM     28  HD  SGN F   2     -20.465  56.273 174.3800  0.00  0.00     0.000 HD
ATOM     28   S  SGN F   2     -19.548  57.085 175.9740  0.00  0.00     0.000 S
ATOM     29   O  SGN F   2     -18.154  57.058 176.3570  0.00  0.00     0.000 OA
ATOM     30   O  SGN F   2     -20.085  58.427 175.9430  0.00  0.00     0.000 OA
ATOM     31   O  SGN F   2     -20.362  56.220 176.7480  0.00  0.00     0.000 OA
ATOM     32   O  SGN F   2     -20.461  57.923 171.9180  0.00  0.00     0.000 O
ATOM     34  HD  SGN F   2     -21.281  57.645 171.9100  0.00  0.00     0.000 HD
ATOM     34   C  SGN F   2     -15.746  57.688 170.5020  0.00  0.00     0.000 C
ATOM     35   O  SGN F   2     -15.637  59.010 170.9070  0.00  0.00     0.000 O
ATOM     36   S  SGN F   2     -14.523  59.990 170.5540  0.00  0.00     0.000 S
ATOM     37   O  SGN F   2     -15.200  61.125 169.9780  0.00  0.00     0.000 OA
ATOM     38   O  SGN F   2     -13.869  60.258 171.8150  0.00  0.00     0.000 OA
ATOM     39   O  SGN F   2     -13.645  59.316 169.6050  0.00  0.00     0.000 OA
BRANCH 20 40
ATOM     40  O4  IDS F   3     -17.463  55.123 173.1710  0.00  0.00     0.000 O
BRANCH 40 44
ATOM     41  C1  IDS F   3     -17.567  51.633 173.1560  0.00  0.00     0.000 C
ATOM     42  C2  IDS F   3     -18.424  52.408 174.1240  0.00  0.00     0.000 C
ATOM     43  C3  IDS F   3     -17.609  53.497 174.9220  0.00  0.00     0.000 C
ATOM     44  C4  IDS F   3     -16.684  54.285 174.0140  0.00  0.00     0.000 C
ATOM     45  C5  IDS F   3     -15.864  53.311 173.1680  0.00  0.00     0.000 C
ATOM     46  O5  IDS F   3     -16.723  52.507 172.3910  0.00  0.00     0.000 O
ATOM     47   O  IDS F   3     -21.358  53.642 174.7140  0.00  0.00     0.000 OA
ATOM     48   O  IDS F   3     -21.674  53.192 172.4120  0.00  0.00     0.000 OA
ATOM     49   O  IDS F   3     -21.102  51.436 173.9590  0.00  0.00     0.000 OA
ATOM     50   O  IDS F   3     -19.495  53.020 173.3960  0.00  0.00     0.000 O
ATOM     51   S  IDS F   3     -20.999  52.809 173.6240  0.00  0.00     0.000 S
ATOM     52   O  IDS F   3     -16.791  52.859 175.8980  0.00  0.00     0.000 O
ATOM     54  HD  IDS F   3     -17.552  52.642 175.5450  0.00  0.00     0.000 HD
ATOM     54   C  IDS F   3     -14.789  53.958 172.2890  0.00  0.00     0.000 C
ATOM     55   O  IDS F   3     -14.988  54.174 171.0960  0.00  0.00     0.000 OA
ATOM     56   O  IDS F   3     -13.692  54.291 172.7570  0.00  0.00     0.000 OA
BRANCH 41 57
ATOM     57  O4  SGN F   4     -16.836  50.678 173.8690  0.00  0.00     0.000 O
BRANCH 57 61
ATOM     58  C1  SGN F   4     -15.947  46.699 173.5130  0.00  0.00     0.000 C
ATOM     59  C2  SGN F   4     -15.587  47.586 172.3100  0.00  0.00     0.000 C
ATOM     60  C3  SGN F   4     -15.579  49.057 172.6870  0.00  0.00     0.000 C
ATOM     61  C4  SGN F   4     -16.916  49.393 173.3460  0.00  0.00     0.000 C
ATOM     62  C5  SGN F   4     -17.203  48.408 174.4960  0.00  0.00     0.000 C
ATOM     63  O5  SGN F   4     -17.185  47.091 174.0380  0.00  0.00     0.000 O
ATOM     64   N  SGN F   4     -14.320  47.179 171.7340  0.00  0.00     0.000 N
ATOM     66  HD  SGN F   4     -15.094  46.915 172.0180  0.00  0.00     0.000 HD
ATOM     66   S  SGN F   4     -14.346  45.991 170.6180  0.00  0.00     0.000 S
ATOM     67   O  SGN F   4     -14.711  44.780 171.3290  0.00  0.00     0.000 OA
ATOM     68   O  SGN F   4     -15.330  46.345 169.5960  0.00  0.00     0.000 OA
ATOM     69   O  SGN F   4     -12.983  45.961 170.1350  0.00  0.00     0.000 OA
ATOM     70   O  SGN F   4     -15.454  49.851 171.5160  0.00  0.00     0.000 O
ATOM     72  HD  SGN F   4     -16.228  49.587 171.8000  0.00  0.00     0.000 HD
ATOM     72   C  SGN F   4     -18.558  48.574 175.1320  0.00  0.00     0.000 C
ATOM     73   O  SGN F   4     -19.522  48.376 174.1230  0.00  0.00     0.000 O
ATOM     74   S  SGN F   4     -20.952  47.803 174.3430  0.00  0.00     0.000 S
ATOM     75   O  SGN F   4     -21.415  48.224 175.6240  0.00  0.00     0.000 OA
ATOM     76   O  SGN F   4     -21.793  48.318 173.2640  0.00  0.00     0.000 OA
ATOM     77   O  SGN F   4     -20.757  46.406 174.3270  0.00  0.00     0.000 OA
BRANCH 58 78
ATOM     78  O4  IDS F   5     -14.935  46.747 174.4890  0.00  0.00     0.000 O
BRANCH 78 82
ATOM     79  C1  IDS F   5     -12.715  46.211 177.1220  0.00  0.00     0.000 C
ATOM     80  C2  IDS F   5     -12.246  46.153 175.6750  0.00  0.00     0.000 C
ATOM     81  C3  IDS F   5     -13.114  45.217 174.8300  0.00  0.00     0.000 C
ATOM     82  C4  IDS F   5     -14.614  45.508 175.0530  0.00  0.00     0.000 C
ATOM     83  C5  IDS F   5     -14.918  45.538 176.5530  0.00  0.00     0.000 C
ATOM     84  O5  IDS F   5     -14.091  46.478 177.2070  0.00  0.00     0.000 O
ATOM     85   O  IDS F   5     -12.360  45.001 177.7450  0.00  0.00     0.000 OA
ATOM     86   O  IDS F   5     -12.358  47.437 175.1290  0.00  0.00     0.000 O
ATOM     87   S  IDS F   5     -11.673  47.997 173.8400  0.00  0.00     0.000 S
ATOM     88   O  IDS F   5     -11.509  46.895 172.9300  0.00  0.00     0.000 OA
ATOM     89   O  IDS F   5     -12.564  49.008 173.3170  0.00  0.00     0.000 OA
ATOM     90   O  IDS F   5     -10.407  48.514 174.2890  0.00  0.00     0.000 OA
ATOM     91   O  IDS F   5     -12.842  43.888 175.2260  0.00  0.00     0.000 O
ATOM     93  HD  IDS F   5     -13.534  43.716 175.7170  0.00  0.00     0.000 HD
ATOM     93   O  IDS F   5     -16.730  46.776 177.4610  0.00  0.00     0.000 OA
ATOM     94   O  IDS F   5     -17.235  44.975 176.5650  0.00  0.00     0.000 OA
ATOM     95   C  IDS F   5     -16.379  45.780 176.8830  0.00  0.00     0.000 C
ENDBRANCH 78 82
ENDBRANCH 58 78
ENDBRANCH 57 61
ENDBRANCH 41 57
ENDBRANCH 40 44
ENDBRANCH 20 40
ENDBRANCH 19 23
ENDBRANCH 1 19
TORSDOF 8
ENDMDL
MODEL 82
REMARK VINA RESULT:      -5.0      2.966     12.609
FFDIST PL LJ 2322 74 36 -1
ROOT
ATOM      1  C1  IDS F   1     -19.257  56.528 170.3890  0.00  0.00     0.000 C
ATOM      2  C2  IDS F   1     -18.457  57.248 169.2900  0.00  0.00     0.000 C
ATOM      3  C3  IDS F   1     -19.123  58.562 168.8150  0.00  0.00     0.000 C
ATOM      4  C4  IDS F   1     -19.792  59.373 169.9490  0.00  0.00     0.000 C
ATOM      5  C5  IDS F   1     -20.476  58.431 170.9450  0.00  0.00     0.000 C
ATOM      6  O5  IDS F   1     -19.582  57.462 171.3830  0.00  0.00     0.000 O
ATOM      7   S  IDS F   1     -15.875  57.955 168.9250  0.00  0.00     0.000 S
ATOM      8   O  IDS F   1     -16.307  58.976 168.0190  0.00  0.00     0.000 OA
ATOM      9   O  IDS F   1     -14.884  58.454 169.8330  0.00  0.00     0.000 OA
ATOM     10   O  IDS F   1     -15.479  56.734 168.2640  0.00  0.00     0.000 OA
ATOM     11   O  IDS F   1     -17.170  57.583 169.7680  0.00  0.00     0.000 O
ATOM     12   O  IDS F   1     -20.114  58.248 167.8400  0.00  0.00     0.000 O
ATOM     14  HD  IDS F   1     -20.862  58.658 167.6900  0.00  0.00     0.000 HD
ATOM     14   O  IDS F   1     -18.780  60.098 170.6020  0.00  0.00     0.000 O
ATOM     16  HD  IDS F   1     -19.527  60.509 170.4520  0.00  0.00     0.000 HD
ATOM     16   O  IDS F   1     -21.045  58.569 173.2530  0.00  0.00     0.000 OA
ATOM     17   O  IDS F   1     -21.790  60.106 172.0440  0.00  0.00     0.000 OA
ATOM     18   C  IDS F   1     -21.139  59.078 172.1440  0.00  0.00     0.000 C
ENDROOT
BRANCH 1 19
ATOM     19  O4  SGN F   2     -18.456  55.551 170.9620  0.00  0.00     0.000 O
BRANCH 19 23
ATOM     20  C1  SGN F   2     -18.019  53.218 174.3910  0.00  0.00     0.000 C
ATOM     21  C2  SGN F   2     -19.418  53.250 173.7970  0.00  0.00     0.000 C
ATOM     22  C3  SGN F   2     -19.375  53.637 172.3120  0.00  0.00     0.000 C
ATOM     23  C4  SGN F   2     -18.661  55.026 172.2560  0.00  0.00     0.000 C
ATOM     24  C5  SGN F   2     -17.305  54.827 172.8470  0.00  0.00     0.000 C
ATOM     25  O5  SGN F   2     -17.407  54.461 174.1850  0.00  0.00     0.000 O
ATOM     26   N  SGN F   2     -20.099  51.969 174.1030  0.00  0.00     0.000 N
ATOM     28  HD  SGN F   2     -20.581  51.404 173.6560  0.00  0.00     0.000 HD
ATOM     28   S  SGN F   2     -20.811  51.810 175.6110  0.00  0.00     0.000 S
ATOM     29   O  SGN F   2     -19.833  52.212 176.5980  0.00  0.00     0.000 OA
ATOM     30   O  SGN F   2     -21.952  52.696 175.5740  0.00  0.00     0.000 OA
ATOM     31   O  SGN F   2     -21.211  50.456 175.7350  0.00  0.00     0.000 OA
ATOM     32   O  SGN F   2     -20.712  53.741 171.8370  0.00  0.00     0.000 O
ATOM     34  HD  SGN F   2     -21.193  53.176 171.3900  0.00  0.00     0.000 HD
ATOM     34   C  SGN F   2     -16.479  56.070 172.8110  0.00  0.00     0.000 C
ATOM     35   O  SGN F   2     -17.244  57.034 173.4510  0.00  0.00     0.000 O
ATOM     36   S  SGN F   2     -16.805  58.438 173.8530  0.00  0.00     0.000 S
ATOM     37   O  SGN F   2     -17.772  59.315 173.2420  0.00  0.00     0.000 OA
ATOM     38   O  SGN F   2     -16.837  58.423 175.2990  0.00  0.00     0.000 OA
ATOM     39   O  SGN F   2     -15.458  58.631 173.3300  0.00  0.00     0.000 OA
BRANCH 20 40
ATOM     40  O4  IDS F   3     -17.243  52.194 173.8300  0.00  0.00     0.000 O
BRANCH 40 44
ATOM     41  C1  IDS F   3     -15.472  49.255 173.1780  0.00  0.00     0.000 C
ATOM     42  C2  IDS F   3     -16.838  49.187 173.8140  0.00  0.00     0.000 C
ATOM     43  C3  IDS F   3     -16.981  50.152 175.0530  0.00  0.00     0.000 C
ATOM     44  C4  IDS F   3     -16.406  51.526 174.7650  0.00  0.00     0.000 C
ATOM     45  C5  IDS F   3     -15.000  51.369 174.1890  0.00  0.00     0.000 C
ATOM     46  O5  IDS F   3     -15.048  50.615 172.9990  0.00  0.00     0.000 O
ATOM     47   O  IDS F   3     -20.008  48.753 173.3200  0.00  0.00     0.000 OA
ATOM     48   O  IDS F   3     -19.387  49.071 171.0590  0.00  0.00     0.000 OA
ATOM     49   O  IDS F   3     -18.425  47.300 172.3780  0.00  0.00     0.000 OA
ATOM     50   O  IDS F   3     -17.820  49.501 172.8200  0.00  0.00     0.000 O
ATOM     51   S  IDS F   3     -18.978  48.605 172.3560  0.00  0.00     0.000 S
ATOM     52   O  IDS F   3     -16.256  49.620 176.1570  0.00  0.00     0.000 O
ATOM     54  HD  IDS F   3     -16.654  49.243 175.4870  0.00  0.00     0.000 HD
ATOM     54   C  IDS F   3     -14.237  52.680 173.9660  0.00  0.00     0.000 C
ATOM     55   O  IDS F   3     -14.183  53.203 172.8550  0.00  0.00     0.000 OA
ATOM     56   O  IDS F   3     -13.663  53.255 174.9000  0.00  0.00     0.000 OA
BRANCH 41 57
ATOM     57  O4  SGN F   4     -14.577  48.517 173.9570  0.00  0.00     0.000 O
BRANCH 57 61
ATOM     58  C1  SGN F   4     -11.176  46.409 173.0980  0.00  0.00     0.000 C
ATOM     59  C2  SGN F   4     -10.975  47.789 173.7450  0.00  0.00     0.000 C
ATOM     60  C3  SGN F   4     -12.258  48.298 174.3780  0.00  0.00     0.000 C
ATOM     61  C4  SGN F   4     -13.368  48.244 173.3300  0.00  0.00     0.000 C
ATOM     62  C5  SGN F   4     -13.441  46.836 172.7070  0.00  0.00     0.000 C
ATOM     63  O5  SGN F   4     -12.211  46.472 172.1580  0.00  0.00     0.000 O
ATOM     64   N  SGN F   4      -9.888  47.754 174.7040  0.00  0.00     0.000 N
ATOM     66  HD  SGN F   4     -10.141  47.546 173.9020  0.00  0.00     0.000 HD
ATOM     66   S  SGN F   4      -8.377  48.000 174.1410  0.00  0.00     0.000 S
ATOM     67   O  SGN F   4      -8.055  46.837 173.3350  0.00  0.00     0.000 OA
ATOM     68   O  SGN F   4      -8.378  49.230 173.3520  0.00  0.00     0.000 OA
ATOM     69   O  SGN F   4      -7.583  48.075 175.3470  0.00  0.00     0.000 OA
ATOM     70   O  SGN F   4     -12.093  49.653 174.7730  0.00  0.00     0.000 O
ATOM     72  HD  SGN F   4     -12.346  49.445 173.9710  0.00  0.00     0.000 HD
ATOM     72   C  SGN F   4     -14.420  46.710 171.5700  0.00  0.00     0.000 C
ATOM     73   O  SGN F   4     -14.024  47.620 170.5710  0.00  0.00     0.000 O
ATOM     74   S  SGN F   4     -14.250  47.436 169.0420  0.00  0.00     0.000 S
ATOM     75   O  SGN F   4     -15.478  46.739 168.8490  0.00  0.00     0.000 OA
ATOM     76   O  SGN F   4     -14.282  48.771 168.4480  0.00  0.00     0.000 OA
ATOM     77   O  SGN F   4     -13.162  46.634 168.6390  0.00  0.00     0.000 OA
BRANCH 58 78
ATOM     78  O4  IDS F   5     -11.428  45.431 174.0780  0.00  0.00     0.000 O
BRANCH 78 82
ATOM     79  C1  IDS F   5     -11.426  42.152 175.2600  0.00  0.00     0.000 C
ATOM     80  C2  IDS F   5     -11.524  43.332 176.2170  0.00  0.00     0.000 C
ATOM     81  C3  IDS F   5     -10.415  44.358 175.9740  0.00  0.00     0.000 C
ATOM     82  C4  IDS F   5     -10.302  44.701 174.4730  0.00  0.00     0.000 C
ATOM     83  C5  IDS F   5     -10.218  43.413 173.6520  0.00  0.00     0.000 C
ATOM     84  O5  IDS F   5     -11.325  42.579 173.9260  0.00  0.00     0.000 O
ATOM     85   O  IDS F   5     -10.335  41.358 175.6560  0.00  0.00     0.000 OA
ATOM     86   O  IDS F   5     -12.748  43.974 175.9920  0.00  0.00     0.000 O
ATOM     87   S  IDS F   5     -13.495  44.975 176.9320  0.00  0.00     0.000 S
ATOM     88   O  IDS F   5     -12.494  45.686 177.6830  0.00  0.00     0.000 OA
ATOM     89   O  IDS F   5     -14.252  45.851 176.0670  0.00  0.00     0.000 OA
ATOM     90   O  IDS F   5     -14.312  44.147 177.7790  0.00  0.00     0.000 OA
ATOM     91   O  IDS F   5      -9.193  43.796 176.4090  0.00  0.00     0.000 O
ATOM     93  HD  IDS F   5      -8.836  43.570 175.6520  0.00  0.00     0.000 HD
ATOM     93   O  IDS F   5     -10.924  43.297 171.3870  0.00  0.00     0.000 OA
ATOM     94   O  IDS F   5      -9.075  44.178 171.7060  0.00  0.00     0.000 OA
ATOM     95   C  IDS F   5     -10.066  43.639 172.1600  0.00  0.00     0.000 C
ENDBRANCH 78 82
ENDBRANCH 58 78
ENDBRANCH 57 61
ENDBRANCH 41 57
ENDBRANCH 40 44
ENDBRANCH 20 40
ENDBRANCH 19 23
ENDBRANCH 1 19
TORSDOF 8
ENDMDL
MODEL 83
REMARK VINA RESULT:      -4.9      2.390      4.695
FFDIST PL LJ 2322 74 36 -1
ROOT
ATOM      1  C1  IDS F   1     -10.246  44.992 171.4800  0.00  0.00     0.000 C
ATOM      2  C2  IDS F   1      -9.497  46.262 171.0420  0.00  0.00     0.000 C
ATOM      3  C3  IDS F   1      -8.016  46.000 170.6760  0.00  0.00     0.000 C
ATOM      4  C4  IDS F   1      -7.780  44.662 169.9370  0.00  0.00     0.000 C
ATOM      5  C5  IDS F   1      -8.679  43.566 170.5180  0.00  0.00     0.000 C
ATOM      6  O5  IDS F   1     -10.003  43.987 170.5330  0.00  0.00     0.000 O
ATOM      7   S  IDS F   1      -9.976  48.297 169.3310  0.00  0.00     0.000 S
ATOM      8   O  IDS F   1      -8.566  48.527 169.2460  0.00  0.00     0.000 OA
ATOM      9   O  IDS F   1     -10.586  48.331 168.0330  0.00  0.00     0.000 OA
ATOM     10   O  IDS F   1     -10.637  49.148 170.2930  0.00  0.00     0.000 OA
ATOM     11   O  IDS F   1     -10.115  46.820 169.9010  0.00  0.00     0.000 O
ATOM     12   O  IDS F   1      -7.241  45.996 171.8730  0.00  0.00     0.000 O
ATOM     14  HD  IDS F   1      -6.533  45.530 172.0460  0.00  0.00     0.000 HD
ATOM     14   O  IDS F   1      -8.100  44.868 168.5830  0.00  0.00     0.000 O
ATOM     16  HD  IDS F   1      -7.391  44.402 168.7560  0.00  0.00     0.000 HD
ATOM     16   O  IDS F   1      -9.609  41.545 169.6690  0.00  0.00     0.000 OA
ATOM     17   O  IDS F   1      -7.529  41.715 169.5210  0.00  0.00     0.000 OA
ATOM     18   C  IDS F   1      -8.595  42.202 169.8620  0.00  0.00     0.000 C
ENDROOT
BRANCH 1 19
ATOM     19  O4  SGN F   2     -11.608  45.253 171.4900  0.00  0.00     0.000 O
BRANCH 19 23
ATOM     20  C1  SGN F   2     -14.353  46.575 174.3370  0.00  0.00     0.000 C
ATOM     21  C2  SGN F   2     -12.951  46.301 174.8590  0.00  0.00     0.000 C
ATOM     22  C3  SGN F   2     -11.921  46.368 173.7230  0.00  0.00     0.000 C
ATOM     23  C4  SGN F   2     -12.389  45.319 172.6640  0.00  0.00     0.000 C
ATOM     24  C5  SGN F   2     -13.757  45.733 172.2350  0.00  0.00     0.000 C
ATOM     25  O5  SGN F   2     -14.642  45.671 173.3070  0.00  0.00     0.000 O
ATOM     26   N  SGN F   2     -12.687  47.193 176.0140  0.00  0.00     0.000 N
ATOM     28  HD  SGN F   2     -12.027  47.692 176.2690  0.00  0.00     0.000 HD
ATOM     28   S  SGN F   2     -13.269  46.715 177.5120  0.00  0.00     0.000 S
ATOM     29   O  SGN F   2     -14.660  46.361 177.3440  0.00  0.00     0.000 OA
ATOM     30   O  SGN F   2     -12.451  45.581 177.8790  0.00  0.00     0.000 OA
ATOM     31   O  SGN F   2     -13.069  47.805 178.3960  0.00  0.00     0.000 OA
ATOM     32   O  SGN F   2     -10.648  46.014 174.2520  0.00  0.00     0.000 O
ATOM     34  HD  SGN F   2      -9.988  46.513 174.5070  0.00  0.00     0.000 HD
ATOM     34   C  SGN F   2     -14.316  44.846 171.1740  0.00  0.00     0.000 C
ATOM     35   O  SGN F   2     -14.248  43.564 171.6980  0.00  0.00     0.000 O
ATOM     36   S  SGN F   2     -14.851  42.294 171.1070  0.00  0.00     0.000 S
ATOM     37   O  SGN F   2     -13.745  41.377 170.9960  0.00  0.00     0.000 OA
ATOM     38   O  SGN F   2     -15.865  41.901 172.0610  0.00  0.00     0.000 OA
ATOM     39   O  SGN F   2     -15.418  42.654 169.8130  0.00  0.00     0.000 OA
BRANCH 20 40
ATOM     40  O4  IDS F   3     -14.485  47.894 173.8800  0.00  0.00     0.000 O
BRANCH 40 44
ATOM     41  C1  IDS F   3     -15.782  51.124 173.5990  0.00  0.00     0.000 C
ATOM     42  C2  IDS F   3     -16.058  50.306 174.8350  0.00  0.00     0.000 C
ATOM     43  C3  IDS F   3     -16.587  48.859 174.5030  0.00  0.00     0.000 C
ATOM     44  C4  IDS F   3     -15.784  48.207 173.3930  0.00  0.00     0.000 C
ATOM     45  C5  IDS F   3     -15.679  49.177 172.2160  0.00  0.00     0.000 C
ATOM     46  O5  IDS F   3     -15.045  50.367 172.6270  0.00  0.00     0.000 O
ATOM     47   O  IDS F   3     -15.180  49.683 177.8880  0.00  0.00     0.000 OA
ATOM     48   O  IDS F   3     -13.255  50.908 177.2620  0.00  0.00     0.000 OA
ATOM     49   O  IDS F   3     -15.452  51.887 177.1320  0.00  0.00     0.000 OA
ATOM     50   O  IDS F   3     -14.856  50.233 175.6110  0.00  0.00     0.000 O
ATOM     51   S  IDS F   3     -14.665  50.711 177.0580  0.00  0.00     0.000 S
ATOM     52   O  IDS F   3     -17.935  48.936 174.0510  0.00  0.00     0.000 O
ATOM     54  HD  IDS F   3     -17.475  49.429 174.5940  0.00  0.00     0.000 HD
ATOM     54   C  IDS F   3     -15.002  48.610 170.9630  0.00  0.00     0.000 C
ATOM     55   O  IDS F   3     -13.820  48.841 170.7200  0.00  0.00     0.000 OA
ATOM     56   O  IDS F   3     -15.623  47.894 170.1660  0.00  0.00     0.000 OA
BRANCH 41 57
ATOM     57  O4  SGN F   4     -16.997  51.597 173.0940  0.00  0.00     0.000 O
BRANCH 57 61
ATOM     58  C1  SGN F   4     -18.987  55.078 173.9120  0.00  0.00     0.000 C
ATOM     59  C2  SGN F   4     -17.555  54.971 174.4580  0.00  0.00     0.000 C
ATOM     60  C3  SGN F   4     -16.783  53.854 173.7780  0.00  0.00     0.000 C
ATOM     61  C4  SGN F   4     -17.601  52.568 173.8840  0.00  0.00     0.000 C
ATOM     62  C5  SGN F   4     -19.033  52.806 173.3650  0.00  0.00     0.000 C
ATOM     63  O5  SGN F   4     -19.645  53.851 174.0580  0.00  0.00     0.000 O
ATOM     64   N  SGN F   4     -16.864  56.240 174.3420  0.00  0.00     0.000 N
ATOM     66  HD  SGN F   4     -17.589  55.842 174.5980  0.00  0.00     0.000 HD
ATOM     66   S  SGN F   4     -17.051  57.315 175.5540  0.00  0.00     0.000 S
ATOM     67   O  SGN F   4     -18.430  57.759 175.4870  0.00  0.00     0.000 OA
ATOM     68   O  SGN F   4     -16.754  56.638 176.8140  0.00  0.00     0.000 OA
ATOM     69   O  SGN F   4     -16.114  58.362 175.2140  0.00  0.00     0.000 OA
ATOM     70   O  SGN F   4     -15.549  53.646 174.4490  0.00  0.00     0.000 O
ATOM     72  HD  SGN F   4     -16.274  53.247 174.7050  0.00  0.00     0.000 HD
ATOM     72   C  SGN F   4     -19.961  51.633 173.5430  0.00  0.00     0.000 C
ATOM     73   O  SGN F   4     -20.026  51.354 174.9230  0.00  0.00     0.000 O
ATOM     74   S  SGN F   4     -21.253  50.747 175.6630  0.00  0.00     0.000 S
ATOM     75   O  SGN F   4     -21.914  49.847 174.7760  0.00  0.00     0.000 OA
ATOM     76   O  SGN F   4     -20.744  50.066 176.8520  0.00  0.00     0.000 OA
ATOM     77   O  SGN F   4     -22.071  51.866 175.9250  0.00  0.00     0.000 OA
BRANCH 58 78
ATOM     78  O4  IDS F   5     -18.979  55.502 172.5700  0.00  0.00     0.000 O
BRANCH 78 82
ATOM     79  C1  IDS F   5     -19.635  56.811 169.4070  0.00  0.00     0.000 C
ATOM     80  C2  IDS F   5     -18.600  57.449 170.3220  0.00  0.00     0.000 C
ATOM     81  C3  IDS F   5     -19.168  57.739 171.7130  0.00  0.00     0.000 C
ATOM     82  C4  IDS F   5     -19.908  56.504 172.2720  0.00  0.00     0.000 C
ATOM     83  C5  IDS F   5     -20.903  55.983 171.2330  0.00  0.00     0.000 C
ATOM     84  O5  IDS F   5     -20.246  55.702 170.0150  0.00  0.00     0.000 O
ATOM     85   O  IDS F   5     -20.561  57.802 169.0370  0.00  0.00     0.000 OA
ATOM     86   O  IDS F   5     -17.542  56.546 170.4800  0.00  0.00     0.000 O
ATOM     87   S  IDS F   5     -16.093  56.842 170.9890  0.00  0.00     0.000 S
ATOM     88   O  IDS F   5     -16.181  57.938 171.9170  0.00  0.00     0.000 OA
ATOM     89   O  IDS F   5     -15.634  55.627 171.6230  0.00  0.00     0.000 OA
ATOM     90   O  IDS F   5     -15.352  57.198 169.8080  0.00  0.00     0.000 OA
ATOM     91   O  IDS F   5     -20.084  58.810 171.6000  0.00  0.00     0.000 O
ATOM     93  HD  IDS F   5     -20.839  58.386 171.6290  0.00  0.00     0.000 HD
ATOM     93   O  IDS F   5     -21.604  53.714 171.1660  0.00  0.00     0.000 OA
ATOM     94   O  IDS F   5     -22.494  54.884 172.6280  0.00  0.00     0.000 OA
ATOM     95   C  IDS F   5     -21.715  54.789 171.6990  0.00  0.00     0.000 C
ENDBRANCH 78 82
ENDBRANCH 58 78
ENDBRANCH 57 61
ENDBRANCH 41 57
ENDBRANCH 40 44
ENDBRANCH 20 40
ENDBRANCH 19 23
ENDBRANCH 1 19
TORSDOF 8
ENDMDL
MODEL 84
REMARK VINA RESULT:      -4.8      3.154     11.283
FFDIST PL LJ 2322 74 36 -1
ROOT
ATOM      1  C1  IDS F   1     -17.900  57.497 170.8420  0.00  0.00     0.000 C
ATOM      2  C2  IDS F   1     -18.525  57.823 169.4760  0.00  0.00     0.000 C
ATOM      3  C3  IDS F   1     -18.079  59.194 168.9130  0.00  0.00     0.000 C
ATOM      4  C4  IDS F   1     -16.597  59.535 169.1920  0.00  0.00     0.000 C
ATOM      5  C5  IDS F   1     -16.196  59.063 170.5940  0.00  0.00     0.000 C
ATOM      6  O5  IDS F   1     -16.518  57.722 170.7610  0.00  0.00     0.000 O
ATOM      7   S  IDS F   1     -18.843  56.516 167.1320  0.00  0.00     0.000 S
ATOM      8   O  IDS F   1     -18.949  57.780 166.4680  0.00  0.00     0.000 OA
ATOM      9   O  IDS F   1     -17.982  55.623 166.4120  0.00  0.00     0.000 OA
ATOM     10   O  IDS F   1     -20.123  55.933 167.4590  0.00  0.00     0.000 OA
ATOM     11   O  IDS F   1     -18.155  56.844 168.5260  0.00  0.00     0.000 O
ATOM     12   O  IDS F   1     -18.892  60.213 169.4900  0.00  0.00     0.000 O
ATOM     14  HD  IDS F   1     -18.668  61.027 169.6820  0.00  0.00     0.000 HD
ATOM     14   O  IDS F   1     -15.823  58.865 168.2280  0.00  0.00     0.000 O
ATOM     16  HD  IDS F   1     -15.599  59.679 168.4200  0.00  0.00     0.000 HD
ATOM     16   O  IDS F   1     -14.144  58.423 171.6170  0.00  0.00     0.000 OA
ATOM     17   O  IDS F   1     -14.161  60.319 170.7320  0.00  0.00     0.000 OA
ATOM     18   C  IDS F   1     -14.752  59.285 170.9970  0.00  0.00     0.000 C
ENDROOT
BRANCH 1 19
ATOM     19  O4  SGN F   2     -18.101  56.153 171.1200  0.00  0.00     0.000 O
BRANCH 19 23
ATOM     20  C1  SGN F   2     -20.529  53.724 173.4860  0.00  0.00     0.000 C
ATOM     21  C2  SGN F   2     -21.056  54.011 172.0890  0.00  0.00     0.000 C
ATOM     22  C3  SGN F   2     -19.914  54.409 171.1430  0.00  0.00     0.000 C
ATOM     23  C4  SGN F   2     -19.231  55.651 171.8010  0.00  0.00     0.000 C
ATOM     24  C5  SGN F   2     -18.749  55.207 173.1420  0.00  0.00     0.000 C
ATOM     25  O5  SGN F   2     -19.824  54.843 173.9480  0.00  0.00     0.000 O
ATOM     26   N  SGN F   2     -21.884  52.865 171.6440  0.00  0.00     0.000 N
ATOM     28  HD  SGN F   2     -21.955  52.402 170.9150  0.00  0.00     0.000 HD
ATOM     28   S  SGN F   2     -23.476  52.810 172.1640  0.00  0.00     0.000 S
ATOM     29   O  SGN F   2     -23.472  53.018 173.5950  0.00  0.00     0.000 OA
ATOM     30   O  SGN F   2     -24.132  53.884 171.4530  0.00  0.00     0.000 OA
ATOM     31   O  SGN F   2     -23.990  51.546 171.7800  0.00  0.00     0.000 OA
ATOM     32   O  SGN F   2     -20.476  54.754 169.8830  0.00  0.00     0.000 O
ATOM     34  HD  SGN F   2     -20.547  54.291 169.1550  0.00  0.00     0.000 HD
ATOM     34   C  SGN F   2     -18.020  56.285 173.8720  0.00  0.00     0.000 C
ATOM     35   O  SGN F   2     -18.898  57.358 173.9090  0.00  0.00     0.000 O
ATOM     36   S  SGN F   2     -18.732  58.656 174.6910  0.00  0.00     0.000 S
ATOM     37   O  SGN F   2     -18.857  59.700 173.7050  0.00  0.00     0.000 OA
ATOM     38   O  SGN F   2     -19.797  58.624 175.6700  0.00  0.00     0.000 OA
ATOM     39   O  SGN F   2     -17.412  58.617 175.3080  0.00  0.00     0.000 OA
BRANCH 20 40
ATOM     40  O4  IDS F   3     -19.706  52.588 173.5040  0.00  0.00     0.000 O
BRANCH 40 44
ATOM     41  C1  IDS F   3     -18.514  49.452 174.4720  0.00  0.00     0.000 C
ATOM     42  C2  IDS F   3     -19.941  49.840 174.7680  0.00  0.00     0.000 C
ATOM     43  C3  IDS F   3     -20.057  51.252 175.4600  0.00  0.00     0.000 C
ATOM     44  C4  IDS F   3     -19.173  52.284 174.7860  0.00  0.00     0.000 C
ATOM     45  C5  IDS F   3     -17.761  51.715 174.6420  0.00  0.00     0.000 C
ATOM     46  O5  IDS F   3     -17.793  50.537 173.8680  0.00  0.00     0.000 O
ATOM     47   O  IDS F   3     -23.025  49.649 173.8050  0.00  0.00     0.000 OA
ATOM     48   O  IDS F   3     -22.032  48.885 171.7980  0.00  0.00     0.000 OA
ATOM     49   O  IDS F   3     -21.661  47.742 173.8860  0.00  0.00     0.000 OA
ATOM     50   O  IDS F   3     -20.681  49.822 173.5420  0.00  0.00     0.000 O
ATOM     51   S  IDS F   3     -21.921  48.971 173.2290  0.00  0.00     0.000 S
ATOM     52   O  IDS F   3     -19.627  51.156 176.8140  0.00  0.00     0.000 O
ATOM     54  HD  IDS F   3     -19.994  50.582 176.2780  0.00  0.00     0.000 HD
ATOM     54   C  IDS F   3     -16.718  52.693 174.0920  0.00  0.00     0.000 C
ATOM     55   O  IDS F   3     -16.395  52.679 172.9060  0.00  0.00     0.000 OA
ATOM     56   O  IDS F   3     -16.178  53.534 174.8230  0.00  0.00     0.000 OA
BRANCH 41 57
ATOM     57  O4  SGN F   4     -17.915  49.010 175.6560  0.00  0.00     0.000 O
BRANCH 57 61
ATOM     58  C1  SGN F   4     -15.471  46.329 173.7620  0.00  0.00     0.000 C
ATOM     59  C2  SGN F   4     -16.872  45.821 174.1400  0.00  0.00     0.000 C
ATOM     60  C3  SGN F   4     -17.812  46.971 174.4570  0.00  0.00     0.000 C
ATOM     61  C4  SGN F   4     -17.152  47.858 175.5110  0.00  0.00     0.000 C
ATOM     62  C5  SGN F   4     -15.735  48.257 175.0570  0.00  0.00     0.000 C
ATOM     63  O5  SGN F   4     -14.961  47.127 174.7940  0.00  0.00     0.000 O
ATOM     64   N  SGN F   4     -17.408  44.970 173.0970  0.00  0.00     0.000 N
ATOM     66  HD  SGN F   4     -16.724  45.140 173.5990  0.00  0.00     0.000 HD
ATOM     66   S  SGN F   4     -17.022  43.386 173.1430  0.00  0.00     0.000 S
ATOM     67   O  SGN F   4     -15.605  43.310 172.8410  0.00  0.00     0.000 OA
ATOM     68   O  SGN F   4     -17.326  42.880 174.4800  0.00  0.00     0.000 OA
ATOM     69   O  SGN F   4     -17.842  42.815 172.0980  0.00  0.00     0.000 OA
ATOM     70   O  SGN F   4     -19.022  46.465 175.0030  0.00  0.00     0.000 O
ATOM     72  HD  SGN F   4     -18.337  46.635 175.5060  0.00  0.00     0.000 HD
ATOM     72   C  SGN F   4     -14.948  49.029 176.0830  0.00  0.00     0.000 C
ATOM     73   O  SGN F   4     -14.837  48.215 177.2280  0.00  0.00     0.000 O
ATOM     74   S  SGN F   4     -13.653  48.234 178.2370  0.00  0.00     0.000 S
ATOM     75   O  SGN F   4     -13.159  49.568 178.3270  0.00  0.00     0.000 OA
ATOM     76   O  SGN F   4     -14.171  47.757 179.5180  0.00  0.00     0.000 OA
ATOM     77   O  SGN F   4     -12.691  47.395 177.6370  0.00  0.00     0.000 OA
BRANCH 58 78
ATOM     78  O4  IDS F   5     -15.505  47.025 172.5400  0.00  0.00     0.000 O
BRANCH 78 82
ATOM     79  C1  IDS F   5     -14.813  48.592 169.5050  0.00  0.00     0.000 C
ATOM     80  C2  IDS F   5     -15.781  47.420 169.5810  0.00  0.00     0.000 C
ATOM     81  C3  IDS F   5     -15.167  46.218 170.3030  0.00  0.00     0.000 C
ATOM     82  C4  IDS F   5     -14.511  46.652 171.6310  0.00  0.00     0.000 C
ATOM     83  C5  IDS F   5     -13.576  47.837 171.3840  0.00  0.00     0.000 C
ATOM     84  O5  IDS F   5     -14.275  48.898 170.7650  0.00  0.00     0.000 O
ATOM     85   O  IDS F   5     -13.823  48.280 168.5560  0.00  0.00     0.000 OA
ATOM     86   O  IDS F   5     -16.900  47.827 170.3180  0.00  0.00     0.000 O
ATOM     87   S  IDS F   5     -18.313  47.159 170.3670  0.00  0.00     0.000 S
ATOM     88   O  IDS F   5     -18.127  45.748 170.1560  0.00  0.00     0.000 OA
ATOM     89   O  IDS F   5     -18.849  47.448 171.6780  0.00  0.00     0.000 OA
ATOM     90   O  IDS F   5     -19.048  47.770 169.2910  0.00  0.00     0.000 OA
ATOM     91   O  IDS F   5     -14.177  45.659 169.4630  0.00  0.00     0.000 O
ATOM     93  HD  IDS F   5     -13.456  45.962 169.8330  0.00  0.00     0.000 HD
ATOM     93   O  IDS F   5     -13.047  49.417 173.0770  0.00  0.00     0.000 OA
ATOM     94   O  IDS F   5     -12.046  47.606 173.1970  0.00  0.00     0.000 OA
ATOM     95   C  IDS F   5     -12.847  48.319 172.6240  0.00  0.00     0.000 C
ENDBRANCH 78 82
ENDBRANCH 58 78
ENDBRANCH 57 61
ENDBRANCH 41 57
ENDBRANCH 40 44
ENDBRANCH 20 40
ENDBRANCH 19 23
ENDBRANCH 1 19
TORSDOF 8
ENDMDL
MODEL 85
REMARK VINA RESULT:      -4.8      3.726     10.650
FFDIST PL LJ 2322 74 36 -1
ROOT
ATOM      1  C1  IDS F   1     -16.017  57.482 169.1230  0.00  0.00     0.000 C
ATOM      2  C2  IDS F   1     -14.604  57.740 168.5740  0.00  0.00     0.000 C
ATOM      3  C3  IDS F   1     -14.596  58.622 167.3020  0.00  0.00     0.000 C
ATOM      4  C4  IDS F   1     -15.644  59.760 167.3210  0.00  0.00     0.000 C
ATOM      5  C5  IDS F   1     -16.947  59.273 167.9640  0.00  0.00     0.000 C
ATOM      6  O5  IDS F   1     -16.689  58.710 169.2070  0.00  0.00     0.000 O
ATOM      7   S  IDS F   1     -12.237  58.523 169.6160  0.00  0.00     0.000 S
ATOM      8   O  IDS F   1     -11.844  58.983 168.3180  0.00  0.00     0.000 OA
ATOM      9   O  IDS F   1     -11.910  59.485 170.6280  0.00  0.00     0.000 OA
ATOM     10   O  IDS F   1     -11.761  57.193 169.9180  0.00  0.00     0.000 OA
ATOM     11   O  IDS F   1     -13.820  58.403 169.5450  0.00  0.00     0.000 O
ATOM     12   O  IDS F   1     -14.848  57.795 166.1690  0.00  0.00     0.000 O
ATOM     14  HD  IDS F   1     -15.267  58.005 165.4400  0.00  0.00     0.000 HD
ATOM     14   O  IDS F   1     -15.106  60.814 168.0800  0.00  0.00     0.000 O
ATOM     16  HD  IDS F   1     -15.525  61.023 167.3520  0.00  0.00     0.000 HD
ATOM     16   O  IDS F   1     -18.740  60.337 169.1130  0.00  0.00     0.000 OA
ATOM     17   O  IDS F   1     -18.316  61.087 167.2070  0.00  0.00     0.000 OA
ATOM     18   C  IDS F   1     -18.058  60.294 168.0980  0.00  0.00     0.000 C
ENDROOT
BRANCH 1 19
ATOM     19  O4  SGN F   2     -15.914  56.960 170.4040  0.00  0.00     0.000 O
BRANCH 19 23
ATOM     20  C1  SGN F   2     -18.438  55.844 173.5310  0.00  0.00     0.000 C
ATOM     21  C2  SGN F   2     -19.133  56.196 172.2250  0.00  0.00     0.000 C
ATOM     22  C3  SGN F   2     -18.173  56.049 171.0360  0.00  0.00     0.000 C
ATOM     23  C4  SGN F   2     -16.962  56.985 171.3500  0.00  0.00     0.000 C
ATOM     24  C5  SGN F   2     -16.377  56.501 172.6350  0.00  0.00     0.000 C
ATOM     25  O5  SGN F   2     -17.296  56.642 173.6700  0.00  0.00     0.000 O
ATOM     26   N  SGN F   2     -20.394  55.422 172.1280  0.00  0.00     0.000 N
ATOM     28  HD  SGN F   2     -20.789  54.964 171.5080  0.00  0.00     0.000 HD
ATOM     28   S  SGN F   2     -21.736  56.022 172.9310  0.00  0.00     0.000 S
ATOM     29   O  SGN F   2     -21.332  56.328 174.2850  0.00  0.00     0.000 OA
ATOM     30   O  SGN F   2     -22.111  57.204 172.1870  0.00  0.00     0.000 OA
ATOM     31   O  SGN F   2     -22.739  55.023 172.8550  0.00  0.00     0.000 OA
ATOM     32   O  SGN F   2     -18.847  56.479 169.8600  0.00  0.00     0.000 O
ATOM     34  HD  SGN F   2     -19.243  56.021 169.2400  0.00  0.00     0.000 HD
ATOM     34   C  SGN F   2     -15.165  57.274 173.0370  0.00  0.00     0.000 C
ATOM     35   O  SGN F   2     -15.570  58.600 173.0600  0.00  0.00     0.000 O
ATOM     36   S  SGN F   2     -14.779  59.795 173.5790  0.00  0.00     0.000 S
ATOM     37   O  SGN F   2     -14.746  60.723 172.4770  0.00  0.00     0.000 OA
ATOM     38   O  SGN F   2     -15.532  60.252 174.7270  0.00  0.00     0.000 OA
ATOM     39   O  SGN F   2     -13.455  59.305 173.9440  0.00  0.00     0.000 OA
BRANCH 20 40
ATOM     40  O4  IDS F   3     -18.093  54.485 173.5820  0.00  0.00     0.000 O
BRANCH 40 44
ATOM     41  C1  IDS F   3     -17.911  51.286 174.9700  0.00  0.00     0.000 C
ATOM     42  C2  IDS F   3     -18.886  52.295 175.5240  0.00  0.00     0.000 C
ATOM     43  C3  IDS F   3     -18.213  53.686 175.8360  0.00  0.00     0.000 C
ATOM     44  C4  IDS F   3     -17.301  54.134 174.7090  0.00  0.00     0.000 C
ATOM     45  C5  IDS F   3     -16.355  52.990 174.3450  0.00  0.00     0.000 C
ATOM     46  O5  IDS F   3     -17.096  51.862 173.9380  0.00  0.00     0.000 O
ATOM     47   O  IDS F   3     -21.941  53.364 175.5000  0.00  0.00     0.000 OA
ATOM     48   O  IDS F   3     -22.079  52.006 173.5680  0.00  0.00     0.000 OA
ATOM     49   O  IDS F   3     -21.461  51.077 175.7030  0.00  0.00     0.000 OA
ATOM     50   O  IDS F   3     -19.957  52.456 174.5870  0.00  0.00     0.000 O
ATOM     51   S  IDS F   3     -21.450  52.206 174.8460  0.00  0.00     0.000 S
ATOM     52   O  IDS F   3     -17.406  53.574 177.0040  0.00  0.00     0.000 O
ATOM     54  HD  IDS F   3     -18.124  53.160 176.7510  0.00  0.00     0.000 HD
ATOM     54   C  IDS F   3     -15.284  53.336 173.3050  0.00  0.00     0.000 C
ATOM     55   O  IDS F   3     -15.428  53.038 172.1220  0.00  0.00     0.000 OA
ATOM     56   O  IDS F   3     -14.249  53.935 173.6240  0.00  0.00     0.000 OA
BRANCH 41 57
ATOM     57  O4  SGN F   4     -17.150  50.772 176.0240  0.00  0.00     0.000 O
BRANCH 57 61
ATOM     58  C1  SGN F   4     -16.645  47.065 174.3660  0.00  0.00     0.000 C
ATOM     59  C2  SGN F   4     -17.981  47.311 175.0850  0.00  0.00     0.000 C
ATOM     60  C3  SGN F   4     -18.230  48.793 175.3020  0.00  0.00     0.000 C
ATOM     61  C4  SGN F   4     -17.012  49.390 176.0040  0.00  0.00     0.000 C
ATOM     62  C5  SGN F   4     -15.728  49.033 175.2320  0.00  0.00     0.000 C
ATOM     63  O5  SGN F   4     -15.600  47.651 175.0910  0.00  0.00     0.000 O
ATOM     64   N  SGN F   4     -19.075  46.689 174.3640  0.00  0.00     0.000 N
ATOM     66  HD  SGN F   4     -18.279  46.581 174.6890  0.00  0.00     0.000 HD
ATOM     66   S  SGN F   4     -19.398  45.124 174.6880  0.00  0.00     0.000 S
ATOM     67   O  SGN F   4     -18.276  44.366 174.1670  0.00  0.00     0.000 OA
ATOM     68   O  SGN F   4     -19.535  44.975 176.1350  0.00  0.00     0.000 OA
ATOM     69   O  SGN F   4     -20.619  44.880 173.9540  0.00  0.00     0.000 OA
ATOM     70   O  SGN F   4     -19.357  48.971 176.1490  0.00  0.00     0.000 O
ATOM     72  HD  SGN F   4     -18.561  48.863 176.4740  0.00  0.00     0.000 HD
ATOM     72   C  SGN F   4     -14.454  49.466 175.9100  0.00  0.00     0.000 C
ATOM     73   O  SGN F   4     -14.411  48.833 177.1680  0.00  0.00     0.000 O
ATOM     74   S  SGN F   4     -13.115  48.419 177.9250  0.00  0.00     0.000 S
ATOM     75   O  SGN F   4     -12.098  49.374 177.6320  0.00  0.00     0.000 OA
ATOM     76   O  SGN F   4     -13.441  48.389 179.3490  0.00  0.00     0.000 OA
ATOM     77   O  SGN F   4     -12.788  47.167 177.3640  0.00  0.00     0.000 OA
BRANCH 58 78
ATOM     78  O4  IDS F   5     -16.692  47.551 173.0460  0.00  0.00     0.000 O
BRANCH 78 82
ATOM     79  C1  IDS F   5     -16.157  48.302 169.6850  0.00  0.00     0.000 C
ATOM     80  C2  IDS F   5     -17.448  47.640 170.1460  0.00  0.00     0.000 C
ATOM     81  C3  IDS F   5     -17.179  46.396 170.9970  0.00  0.00     0.000 C
ATOM     82  C4  IDS F   5     -16.133  46.695 172.0920  0.00  0.00     0.000 C
ATOM     83  C5  IDS F   5     -14.905  47.361 171.4680  0.00  0.00     0.000 C
ATOM     84  O5  IDS F   5     -15.280  48.524 170.7590  0.00  0.00     0.000 O
ATOM     85   O  IDS F   5     -15.588  47.499 168.6810  0.00  0.00     0.000 OA
ATOM     86   O  IDS F   5     -18.145  48.553 170.9460  0.00  0.00     0.000 O
ATOM     87   S  IDS F   5     -19.656  48.524 171.3450  0.00  0.00     0.000 S
ATOM     88   O  IDS F   5     -20.057  47.143 171.4020  0.00  0.00     0.000 OA
ATOM     89   O  IDS F   5     -19.744  49.170 172.6350  0.00  0.00     0.000 OA
ATOM     90   O  IDS F   5     -20.331  49.235 170.2910  0.00  0.00     0.000 OA
ATOM     91   O  IDS F   5     -16.677  45.383 170.1480  0.00  0.00     0.000 O
ATOM     93  HD  IDS F   5     -15.832  45.414 170.3350  0.00  0.00     0.000 HD
ATOM     93   O  IDS F   5     -13.470  48.797 172.7010  0.00  0.00     0.000 OA
ATOM     94   O  IDS F   5     -13.210  46.768 173.0350  0.00  0.00     0.000 OA
ATOM     95   C  IDS F   5     -13.796  47.664 172.4570  0.00  0.00     0.000 C
ENDBRANCH 78 82
ENDBRANCH 58 78
ENDBRANCH 57 61
ENDBRANCH 41 57
ENDBRANCH 40 44
ENDBRANCH 20 40
ENDBRANCH 19 23
ENDBRANCH 1 19
TORSDOF 8
ENDMDL
MODEL 86
REMARK VINA RESULT:      -4.8      3.649     10.846
FFDIST PL LJ 2322 74 36 -1
ROOT
ATOM      1  C1  IDS F   1     -18.228  57.515 168.7660  0.00  0.00     0.000 C
ATOM      2  C2  IDS F   1     -19.526  57.237 167.9890  0.00  0.00     0.000 C
ATOM      3  C3  IDS F   1     -19.615  58.014 166.6540  0.00  0.00     0.000 C
ATOM      4  C4  IDS F   1     -18.268  58.129 165.9030  0.00  0.00     0.000 C
ATOM      5  C5  IDS F   1     -17.122  58.349 166.8960  0.00  0.00     0.000 C
ATOM      6  O5  IDS F   1     -17.147  57.373 167.8840  0.00  0.00     0.000 O
ATOM      7   S  IDS F   1     -20.910  55.034 167.2600  0.00  0.00     0.000 S
ATOM      8   O  IDS F   1     -21.502  55.786 166.1960  0.00  0.00     0.000 OA
ATOM      9   O  IDS F   1     -20.482  53.743 166.8070  0.00  0.00     0.000 OA
ATOM     10   O  IDS F   1     -21.734  54.977 168.4460  0.00  0.00     0.000 OA
ATOM     11   O  IDS F   1     -19.620  55.862 167.6770  0.00  0.00     0.000 O
ATOM     12   O  IDS F   1     -20.096  59.330 166.9200  0.00  0.00     0.000 O
ATOM     14  HD  IDS F   1     -19.898  60.063 166.5030  0.00  0.00     0.000 HD
ATOM     14   O  IDS F   1     -18.069  56.921 165.2110  0.00  0.00     0.000 O
ATOM     16  HD  IDS F   1     -17.871  57.654 164.7940  0.00  0.00     0.000 HD
ATOM     16   O  IDS F   1     -14.785  57.892 166.8770  0.00  0.00     0.000 OA
ATOM     17   O  IDS F   1     -15.494  59.045 165.2820  0.00  0.00     0.000 OA
ATOM     18   C  IDS F   1     -15.726  58.433 166.3120  0.00  0.00     0.000 C
ENDROOT
BRANCH 1 19
ATOM     19  O4  SGN F   2     -18.092  56.567 169.7690  0.00  0.00     0.000 O
BRANCH 19 23
ATOM     20  C1  SGN F   2     -17.500  56.204 173.8820  0.00  0.00     0.000 C
ATOM     21  C2  SGN F   2     -18.880  56.684 173.4600  0.00  0.00     0.000 C
ATOM     22  C3  SGN F   2     -19.187  56.269 172.0150  0.00  0.00     0.000 C
ATOM     23  C4  SGN F   2     -18.042  56.879 171.1450  0.00  0.00     0.000 C
ATOM     24  C5  SGN F   2     -16.766  56.300 171.6600  0.00  0.00     0.000 C
ATOM     25  O5  SGN F   2     -16.550  56.694 172.9770  0.00  0.00     0.000 O
ATOM     26   N  SGN F   2     -19.870  56.248 174.4740  0.00  0.00     0.000 N
ATOM     28  HD  SGN F   2     -20.657  55.887 174.4520  0.00  0.00     0.000 HD
ATOM     28   S  SGN F   2     -20.034  57.187 175.8520  0.00  0.00     0.000 S
ATOM     29   O  SGN F   2     -18.708  57.418 176.3800  0.00  0.00     0.000 OA
ATOM     30   O  SGN F   2     -20.665  58.404 175.3940  0.00  0.00     0.000 OA
ATOM     31   O  SGN F   2     -20.876  56.470 176.7390  0.00  0.00     0.000 OA
ATOM     32   O  SGN F   2     -20.445  56.822 171.6470  0.00  0.00     0.000 O
ATOM     34  HD  SGN F   2     -21.232  56.461 171.6250  0.00  0.00     0.000 HD
ATOM     34   C  SGN F   2     -15.577  56.755 170.8820  0.00  0.00     0.000 C
ATOM     35   O  SGN F   2     -15.628  58.141 170.9170  0.00  0.00     0.000 O
ATOM     36   S  SGN F   2     -14.557  59.113 170.4330  0.00  0.00     0.000 S
ATOM     37   O  SGN F   2     -15.236  59.973 169.4970  0.00  0.00     0.000 OA
ATOM     38   O  SGN F   2     -14.105  59.775 171.6370  0.00  0.00     0.000 OA
ATOM     39   O  SGN F   2     -13.508  58.317 169.8100  0.00  0.00     0.000 OA
BRANCH 20 40
ATOM     40  O4  IDS F   3     -17.437  54.805 173.9450  0.00  0.00     0.000 O
BRANCH 40 44
ATOM     41  C1  IDS F   3     -17.642  51.501 175.0550  0.00  0.00     0.000 C
ATOM     42  C2  IDS F   3     -18.622  52.529 175.5630  0.00  0.00     0.000 C
ATOM     43  C3  IDS F   3     -17.915  53.838 176.0830  0.00  0.00     0.000 C
ATOM     44  C4  IDS F   3     -16.831  54.309 175.1310  0.00  0.00     0.000 C
ATOM     45  C5  IDS F   3     -15.914  53.133 174.7960  0.00  0.00     0.000 C
ATOM     46  O5  IDS F   3     -16.659  52.097 174.1960  0.00  0.00     0.000 O
ATOM     47   O  IDS F   3     -21.574  53.813 175.2290  0.00  0.00     0.000 OA
ATOM     48   O  IDS F   3     -21.524  52.627 173.1820  0.00  0.00     0.000 OA
ATOM     49   O  IDS F   3     -21.265  51.489 175.2890  0.00  0.00     0.000 OA
ATOM     50   O  IDS F   3     -19.541  52.841 174.5100  0.00  0.00     0.000 O
ATOM     51   S  IDS F   3     -21.068  52.679 174.5450  0.00  0.00     0.000 S
ATOM     52   O  IDS F   3     -17.286  53.576 177.3330  0.00  0.00     0.000 O
ATOM     54  HD  IDS F   3     -17.985  53.237 176.9520  0.00  0.00     0.000 HD
ATOM     54   C  IDS F   3     -14.691  53.483 173.9420  0.00  0.00     0.000 C
ATOM     55   O  IDS F   3     -14.688  53.292 172.7290  0.00  0.00     0.000 OA
ATOM     56   O  IDS F   3     -13.676  53.978 174.4480  0.00  0.00     0.000 OA
BRANCH 41 57
ATOM     57  O4  SGN F   4     -17.066  50.851 176.1510  0.00  0.00     0.000 O
BRANCH 57 61
ATOM     58  C1  SGN F   4     -16.956  47.178 174.3490  0.00  0.00     0.000 C
ATOM     59  C2  SGN F   4     -18.284  47.566 175.0190  0.00  0.00     0.000 C
ATOM     60  C3  SGN F   4     -18.353  49.058 175.2920  0.00  0.00     0.000 C
ATOM     61  C4  SGN F   4     -17.105  49.464 176.0740  0.00  0.00     0.000 C
ATOM     62  C5  SGN F   4     -15.839  48.974 175.3430  0.00  0.00     0.000 C
ATOM     63  O5  SGN F   4     -15.882  47.594 175.1450  0.00  0.00     0.000 O
ATOM     64   N  SGN F   4     -19.411  47.120 174.2230  0.00  0.00     0.000 N
ATOM     66  HD  SGN F   4     -18.653  46.897 174.5780  0.00  0.00     0.000 HD
ATOM     66   S  SGN F   4     -19.946  45.598 174.4610  0.00  0.00     0.000 S
ATOM     67   O  SGN F   4     -18.905  44.723 173.9550  0.00  0.00     0.000 OA
ATOM     68   O  SGN F   4     -20.172  45.411 175.8920  0.00  0.00     0.000 OA
ATOM     69   O  SGN F   4     -21.151  45.543 173.6640  0.00  0.00     0.000 OA
ATOM     70   O  SGN F   4     -19.487  49.346 176.0970  0.00  0.00     0.000 O
ATOM     72  HD  SGN F   4     -18.729  49.123 176.4510  0.00  0.00     0.000 HD
ATOM     72   C  SGN F   4     -14.556  49.212 176.0950  0.00  0.00     0.000 C
ATOM     73   O  SGN F   4     -14.655  48.529 177.3230  0.00  0.00     0.000 O
ATOM     74   S  SGN F   4     -13.462  47.922 178.1160  0.00  0.00     0.000 S
ATOM     75   O  SGN F   4     -12.319  48.748 177.9130  0.00  0.00     0.000 OA
ATOM     76   O  SGN F   4     -13.858  47.877 179.5230  0.00  0.00     0.000 OA
ATOM     77   O  SGN F   4     -13.270  46.661 177.5140  0.00  0.00     0.000 OA
BRANCH 58 78
ATOM     78  O4  IDS F   5     -16.876  47.718 173.0520  0.00  0.00     0.000 O
BRANCH 78 82
ATOM     79  C1  IDS F   5     -16.189  48.527 169.7320  0.00  0.00     0.000 C
ATOM     80  C2  IDS F   5     -17.497  47.853 170.1220  0.00  0.00     0.000 C
ATOM     81  C3  IDS F   5     -17.262  46.596 170.9630  0.00  0.00     0.000 C
ATOM     82  C4  IDS F   5     -16.270  46.880 172.1100  0.00  0.00     0.000 C
ATOM     83  C5  IDS F   5     -15.017  47.561 171.5550  0.00  0.00     0.000 C
ATOM     84  O5  IDS F   5     -15.364  48.735 170.8490  0.00  0.00     0.000 O
ATOM     85   O  IDS F   5     -15.571  47.743 168.7420  0.00  0.00     0.000 OA
ATOM     86   O  IDS F   5     -18.234  48.751 170.9030  0.00  0.00     0.000 O
ATOM     87   S  IDS F   5     -19.762  48.709 171.2310  0.00  0.00     0.000 S
ATOM     88   O  IDS F   5     -20.159  47.326 171.2470  0.00  0.00     0.000 OA
ATOM     89   O  IDS F   5     -19.912  49.333 172.5260  0.00  0.00     0.000 OA
ATOM     90   O  IDS F   5     -20.390  49.435 170.1590  0.00  0.00     0.000 OA
ATOM     91   O  IDS F   5     -16.718  45.599 170.1220  0.00  0.00     0.000 O
ATOM     93  HD  IDS F   5     -15.882  45.630 170.3480  0.00  0.00     0.000 HD
ATOM     93   O  IDS F   5     -13.646  48.981 172.8770  0.00  0.00     0.000 OA
ATOM     94   O  IDS F   5     -13.394  46.947 173.1890  0.00  0.00     0.000 OA
ATOM     95   C  IDS F   5     -13.956  47.851 172.5990  0.00  0.00     0.000 C
ENDBRANCH 78 82
ENDBRANCH 58 78
ENDBRANCH 57 61
ENDBRANCH 41 57
ENDBRANCH 40 44
ENDBRANCH 20 40
ENDBRANCH 19 23
ENDBRANCH 1 19
TORSDOF 8
ENDMDL
MODEL 87
REMARK VINA RESULT:      -4.8      2.652      4.929
FFDIST PL LJ 2322 74 36 -1
ROOT
ATOM      1  C1  IDS F   1      -9.989  45.444 171.0390  0.00  0.00     0.000 C
ATOM      2  C2  IDS F   1      -9.366  46.711 170.4300  0.00  0.00     0.000 C
ATOM      3  C3  IDS F   1      -7.894  46.516 169.9930  0.00  0.00     0.000 C
ATOM      4  C4  IDS F   1      -7.601  45.130 169.3740  0.00  0.00     0.000 C
ATOM      5  C5  IDS F   1      -8.378  44.039 170.1190  0.00  0.00     0.000 C
ATOM      6  O5  IDS F   1      -9.727  44.366 170.1810  0.00  0.00     0.000 O
ATOM      7   S  IDS F   1     -10.099  48.521 168.5620  0.00  0.00     0.000 S
ATOM      8   O  IDS F   1      -8.717  48.839 168.3620  0.00  0.00     0.000 OA
ATOM      9   O  IDS F   1     -10.785  48.379 167.3110  0.00  0.00     0.000 OA
ATOM     10   O  IDS F   1     -10.763  49.419 169.4780  0.00  0.00     0.000 OA
ATOM     11   O  IDS F   1     -10.091  47.105 169.2820  0.00  0.00     0.000 O
ATOM     12   O  IDS F   1      -7.051  46.690 171.1300  0.00  0.00     0.000 O
ATOM     14  HD  IDS F   1      -6.300  46.294 171.3000  0.00  0.00     0.000 HD
ATOM     14   O  IDS F   1      -8.015  45.173 168.0310  0.00  0.00     0.000 O
ATOM     16  HD  IDS F   1      -7.264  44.777 168.2020  0.00  0.00     0.000 HD
ATOM     16   O  IDS F   1      -9.202  41.882 169.5370  0.00  0.00     0.000 OA
ATOM     17   O  IDS F   1      -7.153  42.180 169.2340  0.00  0.00     0.000 OA
ATOM     18   C  IDS F   1      -8.231  42.624 169.5960  0.00  0.00     0.000 C
ENDROOT
BRANCH 1 19
ATOM     19  O4  SGN F   2     -11.364  45.610 171.1140  0.00  0.00     0.000 O
BRANCH 19 23
ATOM     20  C1  SGN F   2     -14.348  46.178 173.9710  0.00  0.00     0.000 C
ATOM     21  C2  SGN F   2     -12.927  46.418 174.4550  0.00  0.00     0.000 C
ATOM     22  C3  SGN F   2     -11.993  46.730 173.2770  0.00  0.00     0.000 C
ATOM     23  C4  SGN F   2     -12.105  45.507 172.3110  0.00  0.00     0.000 C
ATOM     24  C5  SGN F   2     -13.540  45.418 171.9090  0.00  0.00     0.000 C
ATOM     25  O5  SGN F   2     -14.339  45.153 173.0170  0.00  0.00     0.000 O
ATOM     26   N  SGN F   2     -12.953  47.433 175.5350  0.00  0.00     0.000 N
ATOM     28  HD  SGN F   2     -12.490  48.139 175.7290  0.00  0.00     0.000 HD
ATOM     28   S  SGN F   2     -13.323  46.909 177.0830  0.00  0.00     0.000 S
ATOM     29   O  SGN F   2     -14.523  46.107 176.9940  0.00  0.00     0.000 OA
ATOM     30   O  SGN F   2     -12.173  46.136 177.4940  0.00  0.00     0.000 OA
ATOM     31   O  SGN F   2     -13.479  48.069 177.8820  0.00  0.00     0.000 OA
ATOM     32   O  SGN F   2     -10.667  46.853 173.7780  0.00  0.00     0.000 O
ATOM     34  HD  SGN F   2     -10.204  47.559 173.9720  0.00  0.00     0.000 HD
ATOM     34   C  SGN F   2     -13.792  44.317 170.9330  0.00  0.00     0.000 C
ATOM     35   O  SGN F   2     -13.298  43.172 171.5410  0.00  0.00     0.000 O
ATOM     36   S  SGN F   2     -13.459  41.734 171.0610  0.00  0.00     0.000 S
ATOM     37   O  SGN F   2     -12.115  41.223 170.9690  0.00  0.00     0.000 OA
ATOM     38   O  SGN F   2     -14.272  41.106 172.0790  0.00  0.00     0.000 OA
ATOM     39   O  SGN F   2     -14.132  41.787 169.7690  0.00  0.00     0.000 OA
BRANCH 20 40
ATOM     40  O4  IDS F   3     -14.914  47.342 173.4310  0.00  0.00     0.000 O
BRANCH 40 44
ATOM     41  C1  IDS F   3     -17.166  49.975 172.9980  0.00  0.00     0.000 C
ATOM     42  C2  IDS F   3     -17.102  49.247 174.3160  0.00  0.00     0.000 C
ATOM     43  C3  IDS F   3     -17.172  47.681 174.1510  0.00  0.00     0.000 C
ATOM     44  C4  IDS F   3     -16.271  47.192 173.0330  0.00  0.00     0.000 C
ATOM     45  C5  IDS F   3     -16.540  48.018 171.7760  0.00  0.00     0.000 C
ATOM     46  O5  IDS F   3     -16.286  49.381 172.0310  0.00  0.00     0.000 O
ATOM     47   O  IDS F   3     -15.902  49.244 177.3230  0.00  0.00     0.000 OA
ATOM     48   O  IDS F   3     -14.493  50.924 176.4340  0.00  0.00     0.000 OA
ATOM     49   O  IDS F   3     -16.890  51.169 176.4150  0.00  0.00     0.000 OA
ATOM     50   O  IDS F   3     -15.895  49.625 174.9880  0.00  0.00     0.000 O
ATOM     51   S  IDS F   3     -15.781  50.287 176.3690  0.00  0.00     0.000 S
ATOM     52   O  IDS F   3     -18.501  47.296 173.8120  0.00  0.00     0.000 O
ATOM     54  HD  IDS F   3     -18.187  47.959 174.2720  0.00  0.00     0.000 HD
ATOM     54   C  IDS F   3     -15.793  47.556 170.5200  0.00  0.00     0.000 C
ATOM     55   O  IDS F   3     -14.757  48.110 170.1570  0.00  0.00     0.000 OA
ATOM     56   O  IDS F   3     -16.204  46.606 169.8420  0.00  0.00     0.000 OA
BRANCH 41 57
ATOM     57  O4  SGN F   4     -18.494  50.001 172.5630  0.00  0.00     0.000 O
BRANCH 57 61
ATOM     58  C1  SGN F   4     -21.568  52.518 173.5430  0.00  0.00     0.000 C
ATOM     59  C2  SGN F   4     -20.161  52.967 173.9680  0.00  0.00     0.000 C
ATOM     60  C3  SGN F   4     -19.084  52.196 173.2250  0.00  0.00     0.000 C
ATOM     61  C4  SGN F   4     -19.353  50.702 173.4000  0.00  0.00     0.000 C
ATOM     62  C5  SGN F   4     -20.806  50.375 173.0030  0.00  0.00     0.000 C
ATOM     63  O5  SGN F   4     -21.707  51.139 173.7440  0.00  0.00     0.000 O
ATOM     64   N  SGN F   4     -20.004  54.398 173.7930  0.00  0.00     0.000 N
ATOM     66  HD  SGN F   4     -20.506  53.767 174.1100  0.00  0.00     0.000 HD
ATOM     66   S  SGN F   4     -20.483  55.364 175.0160  0.00  0.00     0.000 S
ATOM     67   O  SGN F   4     -21.929  55.262 175.0660  0.00  0.00     0.000 OA
ATOM     68   O  SGN F   4     -19.858  54.886 176.2480  0.00  0.00     0.000 OA
ATOM     69   O  SGN F   4     -20.033  56.673 174.5990  0.00  0.00     0.000 OA
ATOM     70   O  SGN F   4     -17.813  52.482 173.7910  0.00  0.00     0.000 O
ATOM     72  HD  SGN F   4     -18.315  51.851 174.1070  0.00  0.00     0.000 HD
ATOM     72   C  SGN F   4     -21.214  48.948 173.2580  0.00  0.00     0.000 C
ATOM     73   O  SGN F   4     -21.063  48.708 174.6390  0.00  0.00     0.000 O
ATOM     74   S  SGN F   4     -21.914  47.713 175.4790  0.00  0.00     0.000 S
ATOM     75   O  SGN F   4     -22.258  46.604 174.6510  0.00  0.00     0.000 OA
ATOM     76   O  SGN F   4     -21.097  47.306 176.6210  0.00  0.00     0.000 OA
ATOM     77   O  SGN F   4     -23.066  48.455 175.8090  0.00  0.00     0.000 OA
BRANCH 58 78
ATOM     78  O4  IDS F   5     -21.822  52.872 172.2050  0.00  0.00     0.000 O
BRANCH 78 82
ATOM     79  C1  IDS F   5     -23.153  53.747 169.1050  0.00  0.00     0.000 C
ATOM     80  C2  IDS F   5     -22.404  54.765 169.9540  0.00  0.00     0.000 C
ATOM     81  C3  IDS F   5     -22.949  54.828 171.3830  0.00  0.00     0.000 C
ATOM     82  C4  IDS F   5     -23.093  53.411 171.9790  0.00  0.00     0.000 C
ATOM     83  C5  IDS F   5     -23.860  52.515 171.0050  0.00  0.00     0.000 C
ATOM     84  O5  IDS F   5     -23.226  52.499 169.7430  0.00  0.00     0.000 O
ATOM     85   O  IDS F   5     -24.420  54.276 168.8060  0.00  0.00     0.000 OA
ATOM     86   O  IDS F   5     -21.064  54.365 170.0330  0.00  0.00     0.000 O
ATOM     87   S  IDS F   5     -19.827  55.227 170.4460  0.00  0.00     0.000 S
ATOM     88   O  IDS F   5     -20.287  56.213 171.3870  0.00  0.00     0.000 OA
ATOM     89   O  IDS F   5     -18.878  54.311 171.0370  0.00  0.00     0.000 OA
ATOM     90   O  IDS F   5     -19.369  55.828 169.2210  0.00  0.00     0.000 OA
ATOM     91   O  IDS F   5     -24.223  55.439 171.3410  0.00  0.00     0.000 O
ATOM     93  HD  IDS F   5     -24.740  54.749 171.4170  0.00  0.00     0.000 HD
ATOM     93   O  IDS F   5     -23.593  50.155 170.9650  0.00  0.00     0.000 OA
ATOM     94   O  IDS F   5     -24.781  50.896 172.4940  0.00  0.00     0.000 OA
ATOM     95   C  IDS F   5     -24.091  51.105 171.5140  0.00  0.00     0.000 C
ENDBRANCH 78 82
ENDBRANCH 58 78
ENDBRANCH 57 61
ENDBRANCH 41 57
ENDBRANCH 40 44
ENDBRANCH 20 40
ENDBRANCH 19 23
ENDBRANCH 1 19
TORSDOF 8
ENDMDL
MODEL 88
REMARK VINA RESULT:      -4.7      4.281      9.451
FFDIST PL LJ 2322 74 36 -1
ROOT
ATOM      1  C1  IDS F   1     -20.898  45.751 176.2120  0.00  0.00     0.000 C
ATOM      2  C2  IDS F   1     -21.728  46.067 177.4670  0.00  0.00     0.000 C
ATOM      3  C3  IDS F   1     -22.361  47.479 177.4400  0.00  0.00     0.000 C
ATOM      4  C4  IDS F   1     -22.865  47.914 176.0440  0.00  0.00     0.000 C
ATOM      5  C5  IDS F   1     -21.897  47.436 174.9550  0.00  0.00     0.000 C
ATOM      6  O5  IDS F   1     -21.665  46.072 175.0820  0.00  0.00     0.000 O
ATOM      7   S  IDS F   1     -23.645  44.799 178.8880  0.00  0.00     0.000 S
ATOM      8   O  IDS F   1     -24.087  46.069 179.3800  0.00  0.00     0.000 OA
ATOM      9   O  IDS F   1     -24.754  43.985 178.4830  0.00  0.00     0.000 OA
ATOM     10   O  IDS F   1     -22.740  44.122 179.7880  0.00  0.00     0.000 OA
ATOM     11   O  IDS F   1     -22.786  45.139 177.5950  0.00  0.00     0.000 O
ATOM     12   O  IDS F   1     -21.392  48.425 177.8840  0.00  0.00     0.000 O
ATOM     14  HD  IDS F   1     -21.297  49.248 177.6310  0.00  0.00     0.000 HD
ATOM     14   O  IDS F   1     -24.126  47.322 175.8480  0.00  0.00     0.000 O
ATOM     16  HD  IDS F   1     -24.030  48.145 175.5950  0.00  0.00     0.000 HD
ATOM     16   O  IDS F   1     -22.112  46.914 172.6430  0.00  0.00     0.000 OA
ATOM     17   O  IDS F   1     -22.754  48.825 173.2020  0.00  0.00     0.000 OA
ATOM     18   C  IDS F   1     -22.282  47.746 173.5230  0.00  0.00     0.000 C
ENDROOT
BRANCH 1 19
ATOM     19  O4  SGN F   2     -20.632  44.390 176.1780  0.00  0.00     0.000 O
BRANCH 19 23
ATOM     20  C1  SGN F   2     -17.066  43.924 174.0670  0.00  0.00     0.000 C
ATOM     21  C2  SGN F   2     -18.327  43.537 173.3110  0.00  0.00     0.000 C
ATOM     22  C3  SGN F   2     -19.559  44.233 173.9080  0.00  0.00     0.000 C
ATOM     23  C4  SGN F   2     -19.599  43.809 175.4110  0.00  0.00     0.000 C
ATOM     24  C5  SGN F   2     -18.317  44.274 176.0160  0.00  0.00     0.000 C
ATOM     25  O5  SGN F   2     -17.237  43.625 175.4250  0.00  0.00     0.000 O
ATOM     26   N  SGN F   2     -18.107  43.761 171.8620  0.00  0.00     0.000 N
ATOM     28  HD  SGN F   2     -18.561  44.119 171.2180  0.00  0.00     0.000 HD
ATOM     28   S  SGN F   2     -17.303  42.566 171.0060  0.00  0.00     0.000 S
ATOM     29   O  SGN F   2     -16.105  42.234 171.7430  0.00  0.00     0.000 OA
ATOM     30   O  SGN F   2     -18.238  41.464 170.9480  0.00  0.00     0.000 OA
ATOM     31   O  SGN F   2     -17.043  43.091 169.7150  0.00  0.00     0.000 OA
ATOM     32   O  SGN F   2     -20.714  43.764 173.2230  0.00  0.00     0.000 O
ATOM     34  HD  SGN F   2     -21.168  44.122 172.5780  0.00  0.00     0.000 HD
ATOM     34   C  SGN F   2     -18.236  43.985 177.4770  0.00  0.00     0.000 C
ATOM     35   O  SGN F   2     -18.457  42.620 177.5900  0.00  0.00     0.000 O
ATOM     36   S  SGN F   2     -18.305  41.764 178.8430  0.00  0.00     0.000 S
ATOM     37   O  SGN F   2     -19.579  41.109 178.9980  0.00  0.00     0.000 OA
ATOM     38   O  SGN F   2     -17.205  40.875 178.5390  0.00  0.00     0.000 OA
ATOM     39   O  SGN F   2     -17.999  42.669 179.9440  0.00  0.00     0.000 OA
BRANCH 20 40
ATOM     40  O4  IDS F   3     -16.761  45.282 173.9010  0.00  0.00     0.000 O
BRANCH 40 44
ATOM     41  C1  IDS F   3     -15.408  48.341 172.8970  0.00  0.00     0.000 C
ATOM     42  C2  IDS F   3     -15.668  47.260 171.8780  0.00  0.00     0.000 C
ATOM     43  C3  IDS F   3     -15.073  45.864 172.3050  0.00  0.00     0.000 C
ATOM     44  C4  IDS F   3     -15.371  45.547 173.7580  0.00  0.00     0.000 C
ATOM     45  C5  IDS F   3     -14.977  46.744 174.6230  0.00  0.00     0.000 C
ATOM     46  O5  IDS F   3     -15.703  47.885 174.2260  0.00  0.00     0.000 O
ATOM     47   O  IDS F   3     -17.712  46.118 169.6420  0.00  0.00     0.000 OA
ATOM     48   O  IDS F   3     -19.201  47.647 170.6640  0.00  0.00     0.000 OA
ATOM     49   O  IDS F   3     -17.123  48.389 169.6970  0.00  0.00     0.000 OA
ATOM     50   O  IDS F   3     -17.081  47.159 171.6710  0.00  0.00     0.000 O
ATOM     51   S  IDS F   3     -17.832  47.345 170.3440  0.00  0.00     0.000 S
ATOM     52   O  IDS F   3     -13.656  45.887 172.1660  0.00  0.00     0.000 O
ATOM     54  HD  IDS F   3     -14.289  46.303 171.7460  0.00  0.00     0.000 HD
ATOM     54   C  IDS F   3     -15.100  46.525 176.1340  0.00  0.00     0.000 C
ATOM     55   O  IDS F   3     -16.080  46.928 176.7570  0.00  0.00     0.000 OA
ATOM     56   O  IDS F   3     -14.223  45.926 176.7700  0.00  0.00     0.000 OA
BRANCH 41 57
ATOM     57  O4  SGN F   4     -14.086  48.774 172.7640  0.00  0.00     0.000 O
BRANCH 57 61
ATOM     58  C1  SGN F   4     -14.872  52.434 174.4170  0.00  0.00     0.000 C
ATOM     59  C2  SGN F   4     -15.002  52.337 172.8890  0.00  0.00     0.000 C
ATOM     60  C3  SGN F   4     -15.088  50.892 172.4290  0.00  0.00     0.000 C
ATOM     61  C4  SGN F   4     -13.903  50.128 173.0150  0.00  0.00     0.000 C
ATOM     62  C5  SGN F   4     -13.834  50.343 174.5390  0.00  0.00     0.000 C
ATOM     63  O5  SGN F   4     -13.759  51.702 174.8460  0.00  0.00     0.000 O
ATOM     64   N  SGN F   4     -16.135  53.111 172.4190  0.00  0.00     0.000 N
ATOM     66  HD  SGN F   4     -15.428  53.109 172.9190  0.00  0.00     0.000 HD
ATOM     66   S  SGN F   4     -15.893  54.694 172.1150  0.00  0.00     0.000 S
ATOM     67   O  SGN F   4     -15.663  55.320 173.4040  0.00  0.00     0.000 OA
ATOM     68   O  SGN F   4     -14.735  54.818 171.2320  0.00  0.00     0.000 OA
ATOM     69   O  SGN F   4     -17.139  55.110 171.5120  0.00  0.00     0.000 OA
ATOM     70   O  SGN F   4     -14.993  50.833 171.0130  0.00  0.00     0.000 O
ATOM     72  HD  SGN F   4     -14.285  50.831 171.5130  0.00  0.00     0.000 HD
ATOM     72   C  SGN F   4     -12.624  49.735 175.1990  0.00  0.00     0.000 C
ATOM     73   O  SGN F   4     -11.486  50.322 174.6130  0.00  0.00     0.000 O
ATOM     74   S  SGN F   4     -10.121  50.549 175.3250  0.00  0.00     0.000 S
ATOM     75   O  SGN F   4      -9.911  49.483 176.2480  0.00  0.00     0.000 OA
ATOM     76   O  SGN F   4      -9.093  50.580 174.2860  0.00  0.00     0.000 OA
ATOM     77   O  SGN F   4     -10.303  51.766 176.0150  0.00  0.00     0.000 OA
BRANCH 58 78
ATOM     78  O4  IDS F   5     -16.052  51.995 175.0470  0.00  0.00     0.000 O
BRANCH 78 82
ATOM     79  C1  IDS F   5     -18.839  51.430 177.0620  0.00  0.00     0.000 C
ATOM     80  C2  IDS F   5     -18.953  52.221 175.7670  0.00  0.00     0.000 C
ATOM     81  C3  IDS F   5     -17.925  53.352 175.6950  0.00  0.00     0.000 C
ATOM     82  C4  IDS F   5     -16.516  52.838 176.0620  0.00  0.00     0.000 C
ATOM     83  C5  IDS F   5     -16.575  52.063 177.3800  0.00  0.00     0.000 C
ATOM     84  O5  IDS F   5     -17.518  51.015 177.2970  0.00  0.00     0.000 O
ATOM     85   O  IDS F   5     -19.349  52.223 178.1050  0.00  0.00     0.000 OA
ATOM     86   O  IDS F   5     -18.695  51.350 174.7010  0.00  0.00     0.000 O
ATOM     87   S  IDS F   5     -19.048  51.549 173.1900  0.00  0.00     0.000 S
ATOM     88   O  IDS F   5     -19.009  52.963 172.9250  0.00  0.00     0.000 OA
ATOM     89   O  IDS F   5     -18.043  50.827 172.4450  0.00  0.00     0.000 OA
ATOM     90   O  IDS F   5     -20.376  51.013 173.0470  0.00  0.00     0.000 OA
ATOM     91   O  IDS F   5     -18.304  54.350 176.6220  0.00  0.00     0.000 O
ATOM     93  HD  IDS F   5     -17.750  54.194 177.2690  0.00  0.00     0.000 HD
ATOM     93   O  IDS F   5     -15.009  50.363 177.9290  0.00  0.00     0.000 OA
ATOM     94   O  IDS F   5     -14.335  52.310 178.1600  0.00  0.00     0.000 OA
ATOM     95   C  IDS F   5     -15.229  51.545 177.8530  0.00  0.00     0.000 C
ENDBRANCH 78 82
ENDBRANCH 58 78
ENDBRANCH 57 61
ENDBRANCH 41 57
ENDBRANCH 40 44
ENDBRANCH 20 40
ENDBRANCH 19 23
ENDBRANCH 1 19
TORSDOF 8
ENDMDL
MODEL 89
REMARK VINA RESULT:      -4.7      3.183      5.672
FFDIST PL LJ 2322 74 36 -1
ROOT
ATOM      1  C1  IDS F   1      -9.505  47.176 172.1130  0.00  0.00     0.000 C
ATOM      2  C2  IDS F   1      -8.635  48.145 172.9310  0.00  0.00     0.000 C
ATOM      3  C3  IDS F   1      -7.118  47.958 172.6830  0.00  0.00     0.000 C
ATOM      4  C4  IDS F   1      -6.757  47.637 171.2140  0.00  0.00     0.000 C
ATOM      5  C5  IDS F   1      -7.802  46.698 170.6010  0.00  0.00     0.000 C
ATOM      6  O5  IDS F   1      -9.078  47.218 170.7780  0.00  0.00     0.000 O
ATOM      7   S  IDS F   1      -8.633  50.802 173.4200  0.00  0.00     0.000 S
ATOM      8   O  IDS F   1      -7.236  50.723 173.7210  0.00  0.00     0.000 OA
ATOM      9   O  IDS F   1      -8.919  51.928 172.5790  0.00  0.00     0.000 OA
ATOM     10   O  IDS F   1      -9.474  50.738 174.5920  0.00  0.00     0.000 OA
ATOM     11   O  IDS F   1      -8.949  49.481 172.5950  0.00  0.00     0.000 O
ATOM     12   O  IDS F   1      -6.647  46.894 173.5060  0.00  0.00     0.000 O
ATOM     14  HD  IDS F   1      -6.014  46.328 173.3340  0.00  0.00     0.000 HD
ATOM     14   O  IDS F   1      -6.743  48.854 170.5100  0.00  0.00     0.000 O
ATOM     16  HD  IDS F   1      -6.110  48.289 170.3370  0.00  0.00     0.000 HD
ATOM     16   O  IDS F   1      -8.570  46.273 168.3880  0.00  0.00     0.000 OA
ATOM     17   O  IDS F   1      -6.509  46.068 168.6850  0.00  0.00     0.000 OA
ATOM     18   C  IDS F   1      -7.609  46.330 169.1440  0.00  0.00     0.000 C
ENDROOT
BRANCH 1 19
ATOM     19  O4  SGN F   2     -10.822  47.609 172.1560  0.00  0.00     0.000 O
BRANCH 19 23
ATOM     20  C1  SGN F   2     -14.502  46.792 173.9420  0.00  0.00     0.000 C
ATOM     21  C2  SGN F   2     -13.424  47.316 174.8780  0.00  0.00     0.000 C
ATOM     22  C3  SGN F   2     -12.349  48.087 174.0990  0.00  0.00     0.000 C
ATOM     23  C4  SGN F   2     -11.794  47.084 173.0360  0.00  0.00     0.000 C
ATOM     24  C5  SGN F   2     -12.955  46.684 172.1870  0.00  0.00     0.000 C
ATOM     25  O5  SGN F   2     -13.903  46.007 172.9490  0.00  0.00     0.000 O
ATOM     26   N  SGN F   2     -14.069  48.063 175.9840  0.00  0.00     0.000 N
ATOM     28  HD  SGN F   2     -13.928  48.818 176.3830  0.00  0.00     0.000 HD
ATOM     28   S  SGN F   2     -14.668  47.175 177.2730  0.00  0.00     0.000 S
ATOM     29   O  SGN F   2     -15.477  46.108 176.7270  0.00  0.00     0.000 OA
ATOM     30   O  SGN F   2     -13.494  46.683 177.9570  0.00  0.00     0.000 OA
ATOM     31   O  SGN F   2     -15.400  48.077 178.0860  0.00  0.00     0.000 OA
ATOM     32   O  SGN F   2     -11.325  48.470 175.0090  0.00  0.00     0.000 O
ATOM     34  HD  SGN F   2     -11.183  49.226 175.4070  0.00  0.00     0.000 HD
ATOM     34   C  SGN F   2     -12.562  45.761 171.0830  0.00  0.00     0.000 C
ATOM     35   O  SGN F   2     -11.919  44.701 171.7050  0.00  0.00     0.000 O
ATOM     36   S  SGN F   2     -11.476  43.390 171.0640  0.00  0.00     0.000 S
ATOM     37   O  SGN F   2     -10.069  43.292 171.3620  0.00  0.00     0.000 OA
ATOM     38   O  SGN F   2     -12.296  42.384 171.7030  0.00  0.00     0.000 OA
ATOM     39   O  SGN F   2     -11.744  43.500 169.6360  0.00  0.00     0.000 OA
BRANCH 20 40
ATOM     40  O4  IDS F   3     -15.234  47.837 173.3620  0.00  0.00     0.000 O
BRANCH 40 44
ATOM     41  C1  IDS F   3     -18.049  49.643 172.3570  0.00  0.00     0.000 C
ATOM     42  C2  IDS F   3     -18.172  48.591 173.4300  0.00  0.00     0.000 C
ATOM     43  C3  IDS F   3     -17.521  47.217 173.0130  0.00  0.00     0.000 C
ATOM     44  C4  IDS F   3     -16.160  47.411 172.3710  0.00  0.00     0.000 C
ATOM     45  C5  IDS F   3     -16.272  48.467 171.2720  0.00  0.00     0.000 C
ATOM     46  O5  IDS F   3     -16.718  49.688 171.8200  0.00  0.00     0.000 O
ATOM     47   O  IDS F   3     -18.259  48.005 176.6130  0.00  0.00     0.000 OA
ATOM     48   O  IDS F   3     -17.457  50.228 176.7340  0.00  0.00     0.000 OA
ATOM     49   O  IDS F   3     -19.552  49.715 175.6600  0.00  0.00     0.000 OA
ATOM     50   O  IDS F   3     -17.565  49.089 174.6280  0.00  0.00     0.000 O
ATOM     51   S  IDS F   3     -18.245  49.280 175.9920  0.00  0.00     0.000 S
ATOM     52   O  IDS F   3     -18.347  46.570 172.0510  0.00  0.00     0.000 O
ATOM     54  HD  IDS F   3     -18.527  47.117 172.6990  0.00  0.00     0.000 HD
ATOM     54   C  IDS F   3     -15.001  48.682 170.4430  0.00  0.00     0.000 C
ATOM     55   O  IDS F   3     -14.235  49.612 170.6820  0.00  0.00     0.000 OA
ATOM     56   O  IDS F   3     -14.704  47.918 169.5150  0.00  0.00     0.000 OA
BRANCH 41 57
ATOM     57  O4  SGN F   4     -19.010  49.394 171.3730  0.00  0.00     0.000 O
BRANCH 57 61
ATOM     58  C1  SGN F   4     -22.694  51.141 171.0220  0.00  0.00     0.000 C
ATOM     59  C2  SGN F   4     -21.817  51.635 172.1830  0.00  0.00     0.000 C
ATOM     60  C3  SGN F   4     -20.364  51.236 171.9900  0.00  0.00     0.000 C
ATOM     61  C4  SGN F   4     -20.306  49.729 171.7470  0.00  0.00     0.000 C
ATOM     62  C5  SGN F   4     -21.266  49.339 170.6060  0.00  0.00     0.000 C
ATOM     63  O5  SGN F   4     -22.567  49.753 170.8880  0.00  0.00     0.000 O
ATOM     64   N  SGN F   4     -21.954  53.068 172.3570  0.00  0.00     0.000 N
ATOM     66  HD  SGN F   4     -22.373  52.317 172.2570  0.00  0.00     0.000 HD
ATOM     66   S  SGN F   4     -23.177  53.600 173.2960  0.00  0.00     0.000 S
ATOM     67   O  SGN F   4     -24.398  53.305 172.5700  0.00  0.00     0.000 OA
ATOM     68   O  SGN F   4     -23.114  52.891 174.5730  0.00  0.00     0.000 OA
ATOM     69   O  SGN F   4     -22.922  55.019 173.3980  0.00  0.00     0.000 OA
ATOM     70   O  SGN F   4     -19.628  51.519 173.1710  0.00  0.00     0.000 O
ATOM     72  HD  SGN F   4     -20.046  50.768 173.0700  0.00  0.00     0.000 HD
ATOM     72   C  SGN F   4     -21.379  47.855 170.3700  0.00  0.00     0.000 C
ATOM     73   O  SGN F   4     -21.847  47.274 171.5650  0.00  0.00     0.000 O
ATOM     74   S  SGN F   4     -22.718  45.989 171.6620  0.00  0.00     0.000 S
ATOM     75   O  SGN F   4     -22.344  45.110 170.6040  0.00  0.00     0.000 OA
ATOM     76   O  SGN F   4     -22.469  45.398 172.9760  0.00  0.00     0.000 OA
ATOM     77   O  SGN F   4     -24.032  46.462 171.4650  0.00  0.00     0.000 OA
BRANCH 58 78
ATOM     78  O4  IDS F   5     -22.363  51.807 169.8270  0.00  0.00     0.000 O
BRANCH 78 82
ATOM     79  C1  IDS F   5     -22.236  53.285 166.6730  0.00  0.00     0.000 C
ATOM     80  C2  IDS F   5     -22.250  54.132 167.9380  0.00  0.00     0.000 C
ATOM     81  C3  IDS F   5     -23.402  53.750 168.8690  0.00  0.00     0.000 C
ATOM     82  C4  IDS F   5     -23.463  52.220 169.0690  0.00  0.00     0.000 C
ATOM     83  C5  IDS F   5     -23.436  51.519 167.7090  0.00  0.00     0.000 C
ATOM     84  O5  IDS F   5     -22.298  51.914 166.9710  0.00  0.00     0.000 O
ATOM     85   O  IDS F   5     -23.297  53.707 165.8530  0.00  0.00     0.000 OA
ATOM     86   O  IDS F   5     -21.055  53.900 168.6300  0.00  0.00     0.000 O
ATOM     87   S  IDS F   5     -20.410  54.775 169.7550  0.00  0.00     0.000 S
ATOM     88   O  IDS F   5     -21.484  55.414 170.4680  0.00  0.00     0.000 OA
ATOM     89   O  IDS F   5     -19.665  53.864 170.5940  0.00  0.00     0.000 OA
ATOM     90   O  IDS F   5     -19.589  55.728 169.0560  0.00  0.00     0.000 OA
ATOM     91   O  IDS F   5     -24.610  54.183 168.2750  0.00  0.00     0.000 O
ATOM     93  HD  IDS F   5     -24.917  53.437 167.9610  0.00  0.00     0.000 HD
ATOM     93   O  IDS F   5     -22.619  49.305 167.4330  0.00  0.00     0.000 OA
ATOM     94   O  IDS F   5     -24.528  49.464 168.2270  0.00  0.00     0.000 OA
ATOM     95   C  IDS F   5     -23.531  50.007 167.7910  0.00  0.00     0.000 C
ENDBRANCH 78 82
ENDBRANCH 58 78
ENDBRANCH 57 61
ENDBRANCH 41 57
ENDBRANCH 40 44
ENDBRANCH 20 40
ENDBRANCH 19 23
ENDBRANCH 1 19
TORSDOF 8
ENDMDL
MODEL 90
REMARK VINA RESULT:      -4.6      3.169     11.340
FFDIST PL LJ 2322 74 36 -1
ROOT
ATOM      1  C1  IDS F   1     -19.888  55.909 169.6000  0.00  0.00     0.000 C
ATOM      2  C2  IDS F   1     -21.039  55.514 168.6610  0.00  0.00     0.000 C
ATOM      3  C3  IDS F   1     -21.285  56.543 167.5320  0.00  0.00     0.000 C
ATOM      4  C4  IDS F   1     -19.990  57.165 166.9570  0.00  0.00     0.000 C
ATOM      5  C5  IDS F   1     -18.977  57.416 168.0790  0.00  0.00     0.000 C
ATOM      6  O5  IDS F   1     -18.778  56.256 168.8170  0.00  0.00     0.000 O
ATOM      7   S  IDS F   1     -21.769  53.279 167.3290  0.00  0.00     0.000 S
ATOM      8   O  IDS F   1     -22.502  54.095 166.4080  0.00  0.00     0.000 OA
ATOM      9   O  IDS F   1     -21.001  52.284 166.6400  0.00  0.00     0.000 OA
ATOM     10   O  IDS F   1     -22.589  52.736 168.3870  0.00  0.00     0.000 OA
ATOM     11   O  IDS F   1     -20.757  54.275 168.0410  0.00  0.00     0.000 O
ATOM     12   O  IDS F   1     -22.104  57.594 168.0380  0.00  0.00     0.000 O
ATOM     14  HD  IDS F   1     -22.091  58.431 167.8170  0.00  0.00     0.000 HD
ATOM     14   O  IDS F   1     -19.457  56.248 166.0340  0.00  0.00     0.000 O
ATOM     16  HD  IDS F   1     -19.445  57.086 165.8130  0.00  0.00     0.000 HD
ATOM     16   O  IDS F   1     -16.603  57.571 168.1810  0.00  0.00     0.000 OA
ATOM     17   O  IDS F   1     -17.536  58.862 166.8240  0.00  0.00     0.000 OA
ATOM     18   C  IDS F   1     -17.634  57.982 167.6640  0.00  0.00     0.000 C
ENDROOT
BRANCH 1 19
ATOM     19  O4  SGN F   2     -19.541  54.811 170.3740  0.00  0.00     0.000 O
BRANCH 19 23
ATOM     20  C1  SGN F   2     -20.022  53.366 174.2560  0.00  0.00     0.000 C
ATOM     21  C2  SGN F   2     -21.108  52.964 173.2710  0.00  0.00     0.000 C
ATOM     22  C3  SGN F   2     -20.595  53.048 171.8260  0.00  0.00     0.000 C
ATOM     23  C4  SGN F   2     -20.115  54.522 171.6310  0.00  0.00     0.000 C
ATOM     24  C5  SGN F   2     -19.044  54.754 172.6440  0.00  0.00     0.000 C
ATOM     25  O5  SGN F   2     -19.562  54.648 173.9310  0.00  0.00     0.000 O
ATOM     26   N  SGN F   2     -21.663  51.650 173.6760  0.00  0.00     0.000 N
ATOM     28  HD  SGN F   2     -21.868  50.915 173.2680  0.00  0.00     0.000 HD
ATOM     28   S  SGN F   2     -22.834  51.639 174.8740  0.00  0.00     0.000 S
ATOM     29   O  SGN F   2     -22.340  52.439 175.9730  0.00  0.00     0.000 OA
ATOM     30   O  SGN F   2     -24.002  52.221 174.2510  0.00  0.00     0.000 OA
ATOM     31   O  SGN F   2     -23.055  50.282 175.2200  0.00  0.00     0.000 OA
ATOM     32   O  SGN F   2     -21.676  52.752 170.9490  0.00  0.00     0.000 O
ATOM     34  HD  SGN F   2     -21.881  52.017 170.5400  0.00  0.00     0.000 HD
ATOM     34   C  SGN F   2     -18.446  56.117 172.5400  0.00  0.00     0.000 C
ATOM     35   O  SGN F   2     -19.518  56.993 172.6330  0.00  0.00     0.000 O
ATOM     36   S  SGN F   2     -19.457  58.511 172.7660  0.00  0.00     0.000 S
ATOM     37   O  SGN F   2     -20.258  59.009 171.6760  0.00  0.00     0.000 OA
ATOM     38   O  SGN F   2     -19.999  58.777 174.0810  0.00  0.00     0.000 OA
ATOM     39   O  SGN F   2     -18.055  58.893 172.6570  0.00  0.00     0.000 OA
BRANCH 20 40
ATOM     40  O4  IDS F   3     -18.960  52.451 174.2550  0.00  0.00     0.000 O
BRANCH 40 44
ATOM     41  C1  IDS F   3     -16.594  50.225 175.5360  0.00  0.00     0.000 C
ATOM     42  C2  IDS F   3     -17.822  50.566 176.3420  0.00  0.00     0.000 C
ATOM     43  C3  IDS F   3     -18.066  52.120 176.4520  0.00  0.00     0.000 C
ATOM     44  C4  IDS F   3     -17.887  52.814 175.1150  0.00  0.00     0.000 C
ATOM     45  C5  IDS F   3     -16.557  52.379 174.5000  0.00  0.00     0.000 C
ATOM     46  O5  IDS F   3     -16.543  50.982 174.3170  0.00  0.00     0.000 O
ATOM     47   O  IDS F   3     -20.817  49.665 177.1760  0.00  0.00     0.000 OA
ATOM     48   O  IDS F   3     -20.545  48.174 175.3590  0.00  0.00     0.000 OA
ATOM     49   O  IDS F   3     -19.033  48.142 177.2350  0.00  0.00     0.000 OA
ATOM     50   O  IDS F   3     -18.953  49.924 175.7430  0.00  0.00     0.000 O
ATOM     51   S  IDS F   3     -19.893  48.909 176.4100  0.00  0.00     0.000 S
ATOM     52   O  IDS F   3     -17.116  52.690 177.3470  0.00  0.00     0.000 O
ATOM     54  HD  IDS F   3     -17.477  51.904 177.3060  0.00  0.00     0.000 HD
ATOM     54   C  IDS F   3     -16.174  53.097 173.2010  0.00  0.00     0.000 C
ATOM     55   O  IDS F   3     -16.373  52.577 172.1060  0.00  0.00     0.000 OA
ATOM     56   O  IDS F   3     -15.664  54.225 173.2170  0.00  0.00     0.000 OA
BRANCH 41 57
ATOM     57  O4  SGN F   4     -15.464  50.427 176.3340  0.00  0.00     0.000 O
BRANCH 57 61
ATOM     58  C1  SGN F   4     -13.582  47.224 174.6170  0.00  0.00     0.000 C
ATOM     59  C2  SGN F   4     -14.009  47.055 176.0830  0.00  0.00     0.000 C
ATOM     60  C3  SGN F   4     -15.027  48.106 176.4900  0.00  0.00     0.000 C
ATOM     61  C4  SGN F   4     -14.461  49.483 176.1490  0.00  0.00     0.000 C
ATOM     62  C5  SGN F   4     -14.011  49.521 174.6760  0.00  0.00     0.000 C
ATOM     63  O5  SGN F   4     -13.080  48.516 174.4140  0.00  0.00     0.000 O
ATOM     64   N  SGN F   4     -14.507  45.714 176.3210  0.00  0.00     0.000 N
ATOM     66  HD  SGN F   4     -13.869  46.189 175.9790  0.00  0.00     0.000 HD
ATOM     66   S  SGN F   4     -13.418  44.560 176.6960  0.00  0.00     0.000 S
ATOM     67   O  SGN F   4     -12.636  44.340 175.4930  0.00  0.00     0.000 OA
ATOM     68   O  SGN F   4     -12.596  45.048 177.8010  0.00  0.00     0.000 OA
ATOM     69   O  SGN F   4     -14.243  43.423 177.0350  0.00  0.00     0.000 OA
ATOM     70   O  SGN F   4     -15.236  48.052 177.8940  0.00  0.00     0.000 O
ATOM     72  HD  SGN F   4     -14.599  48.528 177.5520  0.00  0.00     0.000 HD
ATOM     72   C  SGN F   4     -13.320  50.797 174.2700  0.00  0.00     0.000 C
ATOM     73   O  SGN F   4     -12.182  50.937 175.0890  0.00  0.00     0.000 O
ATOM     74   S  SGN F   4     -10.858  51.644 174.6790  0.00  0.00     0.000 S
ATOM     75   O  SGN F   4     -11.176  52.722 173.8010  0.00  0.00     0.000 OA
ATOM     76   O  SGN F   4     -10.221  52.113 175.9090  0.00  0.00     0.000 OA
ATOM     77   O  SGN F   4     -10.146  50.642 173.9870  0.00  0.00     0.000 OA
BRANCH 58 78
ATOM     78  O4  IDS F   5     -14.654  46.946 173.7490  0.00  0.00     0.000 O
BRANCH 78 82
ATOM     79  C1  IDS F   5     -16.785  46.094 171.1250  0.00  0.00     0.000 C
ATOM     80  C2  IDS F   5     -16.603  45.171 172.3220  0.00  0.00     0.000 C
ATOM     81  C3  IDS F   5     -15.127  44.887 172.6060  0.00  0.00     0.000 C
ATOM     82  C4  IDS F   5     -14.308  46.196 172.6210  0.00  0.00     0.000 C
ATOM     83  C5  IDS F   5     -14.607  47.007 171.3590  0.00  0.00     0.000 C
ATOM     84  O5  IDS F   5     -15.994  47.249 171.2420  0.00  0.00     0.000 O
ATOM     85   O  IDS F   5     -16.500  45.360 169.9600  0.00  0.00     0.000 OA
ATOM     86   O  IDS F   5     -17.133  45.810 173.4490  0.00  0.00     0.000 O
ATOM     87   S  IDS F   5     -17.539  45.168 174.8160  0.00  0.00     0.000 S
ATOM     88   O  IDS F   5     -16.675  44.038 175.0310  0.00  0.00     0.000 OA
ATOM     89   O  IDS F   5     -17.351  46.196 175.8150  0.00  0.00     0.000 OA
ATOM     90   O  IDS F   5     -18.911  44.769 174.6430  0.00  0.00     0.000 OA
ATOM     91   O  IDS F   5     -14.634  44.050 171.5780  0.00  0.00     0.000 O
ATOM     93  HD  IDS F   5     -14.197  44.621 171.0950  0.00  0.00     0.000 HD
ATOM     93   O  IDS F   5     -14.376  49.370 171.2790  0.00  0.00     0.000 OA
ATOM     94   O  IDS F   5     -12.609  48.292 171.1520  0.00  0.00     0.000 OA
ATOM     95   C  IDS F   5     -13.821  48.301 171.2550  0.00  0.00     0.000 C
ENDBRANCH 78 82
ENDBRANCH 58 78
ENDBRANCH 57 61
ENDBRANCH 41 57
ENDBRANCH 40 44
ENDBRANCH 20 40
ENDBRANCH 19 23
ENDBRANCH 1 19
TORSDOF 8
ENDMDL
MODEL 91
REMARK VINA RESULT:      -4.5      3.432     11.014
FFDIST PL LJ 2322 74 36 -1
ROOT
ATOM      1  C1  IDS F   1     -17.823  56.815 171.4720  0.00  0.00     0.000 C
ATOM      2  C2  IDS F   1     -16.419  56.866 170.8470  0.00  0.00     0.000 C
ATOM      3  C3  IDS F   1     -15.925  58.308 170.5770  0.00  0.00     0.000 C
ATOM      4  C4  IDS F   1     -16.328  59.325 171.6710  0.00  0.00     0.000 C
ATOM      5  C5  IDS F   1     -17.747  59.033 172.1720  0.00  0.00     0.000 C
ATOM      6  O5  IDS F   1     -17.857  57.703 172.5570  0.00  0.00     0.000 O
ATOM      7   S  IDS F   1     -14.029  55.716 171.3620  0.00  0.00     0.000 S
ATOM      8   O  IDS F   1     -13.388  56.796 170.6760  0.00  0.00     0.000 OA
ATOM      9   O  IDS F   1     -13.360  55.415 172.5940  0.00  0.00     0.000 OA
ATOM     10   O  IDS F   1     -14.241  54.555 170.5290  0.00  0.00     0.000 OA
ATOM     11   O  IDS F   1     -15.481  56.260 171.7120  0.00  0.00     0.000 O
ATOM     12   O  IDS F   1     -16.458  58.751 169.3320  0.00  0.00     0.000 O
ATOM     14  HD  IDS F   1     -16.686  59.555 169.1060  0.00  0.00     0.000 HD
ATOM     14   O  IDS F   1     -15.414  59.187 172.7300  0.00  0.00     0.000 O
ATOM     16  HD  IDS F   1     -15.642  59.992 172.5050  0.00  0.00     0.000 HD
ATOM     16   O  IDS F   1     -18.915  59.441 174.2060  0.00  0.00     0.000 OA
ATOM     17   O  IDS F   1     -18.073  61.125 173.2930  0.00  0.00     0.000 OA
ATOM     18   C  IDS F   1     -18.267  59.920 173.2850  0.00  0.00     0.000 C
ENDROOT
BRANCH 1 19
ATOM     19  O4  SGN F   2     -18.055  55.536 171.9560  0.00  0.00     0.000 O
BRANCH 19 23
ATOM     20  C1  SGN F   2     -20.334  53.401 174.7190  0.00  0.00     0.000 C
ATOM     21  C2  SGN F   2     -21.111  54.373 173.8450  0.00  0.00     0.000 C
ATOM     22  C3  SGN F   2     -20.344  54.678 172.5500  0.00  0.00     0.000 C
ATOM     23  C4  SGN F   2     -18.958  55.241 173.0000  0.00  0.00     0.000 C
ATOM     24  C5  SGN F   2     -18.314  54.174 173.8210  0.00  0.00     0.000 C
ATOM     25  O5  SGN F   2     -19.061  53.928 174.9690  0.00  0.00     0.000 O
ATOM     26   N  SGN F   2     -22.490  53.860 173.6640  0.00  0.00     0.000 N
ATOM     28  HD  SGN F   2     -23.033  53.773 172.9950  0.00  0.00     0.000 HD
ATOM     28   S  SGN F   2     -23.598  54.170 174.8830  0.00  0.00     0.000 S
ATOM     29   O  SGN F   2     -22.984  53.791 176.1350  0.00  0.00     0.000 OA
ATOM     30   O  SGN F   2     -23.847  55.592 174.7990  0.00  0.00     0.000 OA
ATOM     31   O  SGN F   2     -24.763  53.422 174.5780  0.00  0.00     0.000 OA
ATOM     32   O  SGN F   2     -21.071  55.658 171.8190  0.00  0.00     0.000 O
ATOM     34  HD  SGN F   2     -21.614  55.571 171.1500  0.00  0.00     0.000 HD
ATOM     34   C  SGN F   2     -16.946  54.553 174.2790  0.00  0.00     0.000 C
ATOM     35   O  SGN F   2     -17.106  55.762 174.9410  0.00  0.00     0.000 O
ATOM     36   S  SGN F   2     -16.059  56.506 175.7620  0.00  0.00     0.000 S
ATOM     37   O  SGN F   2     -15.998  57.821 175.1770  0.00  0.00     0.000 OA
ATOM     38   O  SGN F   2     -16.574  56.473 177.1140  0.00  0.00     0.000 OA
ATOM     39   O  SGN F   2     -14.808  55.770 175.6280  0.00  0.00     0.000 OA
BRANCH 20 40
ATOM     40  O4  IDS F   3     -20.230  52.137 174.1200  0.00  0.00     0.000 O
BRANCH 40 44
ATOM     41  C1  IDS F   3     -20.054  48.759 173.2560  0.00  0.00     0.000 C
ATOM     42  C2  IDS F   3     -21.356  49.507 173.1110  0.00  0.00     0.000 C
ATOM     43  C3  IDS F   3     -21.746  50.307 174.4120  0.00  0.00     0.000 C
ATOM     44  C4  IDS F   3     -20.561  51.060 174.9870  0.00  0.00     0.000 C
ATOM     45  C5  IDS F   3     -19.374  50.106 175.1100  0.00  0.00     0.000 C
ATOM     46  O5  IDS F   3     -19.039  49.587 173.8420  0.00  0.00     0.000 O
ATOM     47   O  IDS F   3     -23.318  51.108 171.0950  0.00  0.00     0.000 OA
ATOM     48   O  IDS F   3     -21.406  51.080 169.7010  0.00  0.00     0.000 OA
ATOM     49   O  IDS F   3     -22.398  49.034 170.4970  0.00  0.00     0.000 OA
ATOM     50   O  IDS F   3     -21.249  50.395 171.9920  0.00  0.00     0.000 O
ATOM     51   S  IDS F   3     -22.138  50.406 170.7400  0.00  0.00     0.000 S
ATOM     52   O  IDS F   3     -22.188  49.398 175.4160  0.00  0.00     0.000 O
ATOM     54  HD  IDS F   3     -22.218  49.369 174.5510  0.00  0.00     0.000 HD
ATOM     54   C  IDS F   3     -18.135  50.692 175.7970  0.00  0.00     0.000 C
ATOM     55   O  IDS F   3     -17.189  51.121 175.1420  0.00  0.00     0.000 OA
ATOM     56   O  IDS F   3     -18.058  50.760 177.0300  0.00  0.00     0.000 OA
BRANCH 41 57
ATOM     57  O4  SGN F   4     -20.286  47.596 173.9970  0.00  0.00     0.000 O
BRANCH 57 61
ATOM     58  C1  SGN F   4     -16.527  45.983 173.8930  0.00  0.00     0.000 C
ATOM     59  C2  SGN F   4     -17.284  46.027 172.5560  0.00  0.00     0.000 C
ATOM     60  C3  SGN F   4     -18.463  46.982 172.6170  0.00  0.00     0.000 C
ATOM     61  C4  SGN F   4     -19.324  46.609 173.8220  0.00  0.00     0.000 C
ATOM     62  C5  SGN F   4     -18.455  46.536 175.0930  0.00  0.00     0.000 C
ATOM     63  O5  SGN F   4     -17.405  45.632 174.9250  0.00  0.00     0.000 O
ATOM     64   N  SGN F   4     -16.386  46.363 171.4680  0.00  0.00     0.000 N
ATOM     66  HD  SGN F   4     -16.512  45.861 172.1630  0.00  0.00     0.000 HD
ATOM     66   S  SGN F   4     -15.572  45.141 170.7580  0.00  0.00     0.000 S
ATOM     67   O  SGN F   4     -14.622  44.664 171.7450  0.00  0.00     0.000 OA
ATOM     68   O  SGN F   4     -16.536  44.108 170.3810  0.00  0.00     0.000 OA
ATOM     69   O  SGN F   4     -14.928  45.782 169.6340  0.00  0.00     0.000 OA
ATOM     70   O  SGN F   4     -19.257  46.838 171.4480  0.00  0.00     0.000 O
ATOM     72  HD  SGN F   4     -19.383  46.337 172.1430  0.00  0.00     0.000 HD
ATOM     72   C  SGN F   4     -19.185  46.050 176.3180  0.00  0.00     0.000 C
ATOM     73   O  SGN F   4     -19.671  44.759 176.0340  0.00  0.00     0.000 O
ATOM     74   S  SGN F   4     -19.881  43.624 177.0780  0.00  0.00     0.000 S
ATOM     75   O  SGN F   4     -20.268  44.217 178.3150  0.00  0.00     0.000 OA
ATOM     76   O  SGN F   4     -20.917  42.739 176.5500  0.00  0.00     0.000 OA
ATOM     77   O  SGN F   4     -18.603  43.038 177.1940  0.00  0.00     0.000 OA
BRANCH 58 78
ATOM     78  O4  IDS F   5     -15.895  47.214 174.1500  0.00  0.00     0.000 O
BRANCH 78 82
ATOM     79  C1  IDS F   5     -13.876  49.853 175.2030  0.00  0.00     0.000 C
ATOM     80  C2  IDS F   5     -13.842  49.364 173.7620  0.00  0.00     0.000 C
ATOM     81  C3  IDS F   5     -13.628  47.851 173.6760  0.00  0.00     0.000 C
ATOM     82  C4  IDS F   5     -14.586  47.106 174.6300  0.00  0.00     0.000 C
ATOM     83  C5  IDS F   5     -14.504  47.719 176.0290  0.00  0.00     0.000 C
ATOM     84  O5  IDS F   5     -14.776  49.104 175.9790  0.00  0.00     0.000 O
ATOM     85   O  IDS F   5     -12.564  49.813 175.7080  0.00  0.00     0.000 OA
ATOM     86   O  IDS F   5     -15.083  49.647 173.1770  0.00  0.00     0.000 O
ATOM     87   S  IDS F   5     -15.437  49.702 171.6550  0.00  0.00     0.000 S
ATOM     88   O  IDS F   5     -14.577  48.766 170.9810  0.00  0.00     0.000 OA
ATOM     89   O  IDS F   5     -16.831  49.332 171.5540  0.00  0.00     0.000 OA
ATOM     90   O  IDS F   5     -15.165  51.060 171.2620  0.00  0.00     0.000 OA
ATOM     91   O  IDS F   5     -12.295  47.573 174.0560  0.00  0.00     0.000 O
ATOM     93  HD  IDS F   5     -12.410  47.282 174.8640  0.00  0.00     0.000 HD
ATOM     93   O  IDS F   5     -16.305  47.609 177.5750  0.00  0.00     0.000 OA
ATOM     94   O  IDS F   5     -15.183  45.876 177.3810  0.00  0.00     0.000 OA
ATOM     95   C  IDS F   5     -15.383  47.032 177.0570  0.00  0.00     0.000 C
ENDBRANCH 78 82
ENDBRANCH 58 78
ENDBRANCH 57 61
ENDBRANCH 41 57
ENDBRANCH 40 44
ENDBRANCH 20 40
ENDBRANCH 19 23
ENDBRANCH 1 19
TORSDOF 8
ENDMDL
MODEL 92
REMARK VINA RESULT:      -4.5      3.771      6.953
FFDIST PL LJ 2322 74 36 -1
ROOT
ATOM      1  C1  IDS F   1     -16.244  43.827 172.8460  0.00  0.00     0.000 C
ATOM      2  C2  IDS F   1     -14.882  43.145 172.6350  0.00  0.00     0.000 C
ATOM      3  C3  IDS F   1     -15.003  41.651 172.2460  0.00  0.00     0.000 C
ATOM      4  C4  IDS F   1     -16.183  41.344 171.2950  0.00  0.00     0.000 C
ATOM      5  C5  IDS F   1     -17.406  42.186 171.6740  0.00  0.00     0.000 C
ATOM      6  O5  IDS F   1     -17.062  43.530 171.7460  0.00  0.00     0.000 O
ATOM      7   S  IDS F   1     -12.615  43.727 171.2860  0.00  0.00     0.000 S
ATOM      8   O  IDS F   1     -12.302  42.330 171.2560  0.00  0.00     0.000 OA
ATOM      9   O  IDS F   1     -12.395  44.335 170.0060  0.00  0.00     0.000 OA
ATOM     10   O  IDS F   1     -11.973  44.432 172.3700  0.00  0.00     0.000 OA
ATOM     11   O  IDS F   1     -14.172  43.789 171.5980  0.00  0.00     0.000 O
ATOM     12   O  IDS F   1     -15.168  40.879 173.4330  0.00  0.00     0.000 O
ATOM     14  HD  IDS F   1     -15.620  40.148 173.5330  0.00  0.00     0.000 HD
ATOM     14   O  IDS F   1     -15.768  41.672 169.9910  0.00  0.00     0.000 O
ATOM     16  HD  IDS F   1     -16.220  40.940 170.0910  0.00  0.00     0.000 HD
ATOM     16   O  IDS F   1     -19.299  43.008 170.4870  0.00  0.00     0.000 OA
ATOM     17   O  IDS F   1     -19.001  40.940 170.3920  0.00  0.00     0.000 OA
ATOM     18   C  IDS F   1     -18.633  42.030 170.7980  0.00  0.00     0.000 C
ENDROOT
BRANCH 1 19
ATOM     19  O4  SGN F   2     -16.059  45.201 172.8850  0.00  0.00     0.000 O
BRANCH 19 23
ATOM     20  C1  SGN F   2     -16.057  48.467 175.4780  0.00  0.00     0.000 C
ATOM     21  C2  SGN F   2     -15.016  47.399 175.7720  0.00  0.00     0.000 C
ATOM     22  C3  SGN F   2     -14.717  46.564 174.5190  0.00  0.00     0.000 C
ATOM     23  C4  SGN F   2     -16.089  45.966 174.0710  0.00  0.00     0.000 C
ATOM     24  C5  SGN F   2     -16.987  47.126 173.7980  0.00  0.00     0.000 C
ATOM     25  O5  SGN F   2     -17.207  47.854 174.9630  0.00  0.00     0.000 O
ATOM     26   N  SGN F   2     -13.840  48.039 176.4090  0.00  0.00     0.000 N
ATOM     28  HD  SGN F   2     -12.981  47.986 176.3110  0.00  0.00     0.000 HD
ATOM     28   S  SGN F   2     -13.913  48.331 178.0570  0.00  0.00     0.000 S
ATOM     29   O  SGN F   2     -15.168  48.999 178.3240  0.00  0.00     0.000 OA
ATOM     30   O  SGN F   2     -13.846  47.022 178.6660  0.00  0.00     0.000 OA
ATOM     31   O  SGN F   2     -12.778  49.114 178.3860  0.00  0.00     0.000 OA
ATOM     32   O  SGN F   2     -13.810  45.528 174.8760  0.00  0.00     0.000 O
ATOM     34  HD  SGN F   2     -12.952  45.476 174.7780  0.00  0.00     0.000 HD
ATOM     34   C  SGN F   2     -18.330  46.705 173.3030  0.00  0.00     0.000 C
ATOM     35   O  SGN F   2     -18.812  45.825 174.2620  0.00  0.00     0.000 O
ATOM     36   S  SGN F   2     -20.215  45.235 174.3470  0.00  0.00     0.000 S
ATOM     37   O  SGN F   2     -20.015  43.809 174.3830  0.00  0.00     0.000 OA
ATOM     38   O  SGN F   2     -20.766  45.796 175.5610  0.00  0.00     0.000 OA
ATOM     39   O  SGN F   2     -20.936  45.674 173.1580  0.00  0.00     0.000 OA
BRANCH 20 40
ATOM     40  O4  IDS F   3     -15.573  49.427 174.5790  0.00  0.00     0.000 O
BRANCH 40 44
ATOM     41  C1  IDS F   3     -15.500  52.833 173.8130  0.00  0.00     0.000 C
ATOM     42  C2  IDS F   3     -16.199  52.356 175.0610  0.00  0.00     0.000 C
ATOM     43  C3  IDS F   3     -17.201  51.171 174.7830  0.00  0.00     0.000 C
ATOM     44  C4  IDS F   3     -16.592  50.122 173.8720  0.00  0.00     0.000 C
ATOM     45  C5  IDS F   3     -15.999  50.810 172.6430  0.00  0.00     0.000 C
ATOM     46  O5  IDS F   3     -15.007  51.731 173.0370  0.00  0.00     0.000 O
ATOM     47   O  IDS F   3     -15.961  51.891 178.2560  0.00  0.00     0.000 OA
ATOM     48   O  IDS F   3     -13.658  52.226 177.8240  0.00  0.00     0.000 OA
ATOM     49   O  IDS F   3     -15.288  53.912 177.2730  0.00  0.00     0.000 OA
ATOM     50   O  IDS F   3     -15.207  51.959 176.0150  0.00  0.00     0.000 O
ATOM     51   S  IDS F   3     -15.006  52.532 177.4250  0.00  0.00     0.000 S
ATOM     52   O  IDS F   3     -18.360  51.672 174.1250  0.00  0.00     0.000 O
ATOM     54  HD  IDS F   3     -17.808  52.033 174.6860  0.00  0.00     0.000 HD
ATOM     54   C  IDS F   3     -15.459  49.864 171.5640  0.00  0.00     0.000 C
ATOM     55   O  IDS F   3     -14.259  49.610 171.4850  0.00  0.00     0.000 OA
ATOM     56   O  IDS F   3     -16.216  49.320 170.7500  0.00  0.00     0.000 OA
BRANCH 41 57
ATOM     57  O4  SGN F   4     -16.380  53.642 173.0880  0.00  0.00     0.000 O
BRANCH 57 61
ATOM     58  C1  SGN F   4     -16.137  57.655 172.3200  0.00  0.00     0.000 C
ATOM     59  C2  SGN F   4     -14.918  57.020 173.0070  0.00  0.00     0.000 C
ATOM     60  C3  SGN F   4     -14.935  55.506 172.8820  0.00  0.00     0.000 C
ATOM     61  C4  SGN F   4     -16.284  54.996 173.3850  0.00  0.00     0.000 C
ATOM     62  C5  SGN F   4     -17.431  55.740 172.6750  0.00  0.00     0.000 C
ATOM     63  O5  SGN F   4     -17.316  57.119 172.8540  0.00  0.00     0.000 O
ATOM     64   N  SGN F   4     -13.686  57.581 172.4870  0.00  0.00     0.000 N
ATOM     66  HD  SGN F   4     -14.474  57.754 172.8020  0.00  0.00     0.000 HD
ATOM     66   S  SGN F   4     -13.131  58.951 173.1760  0.00  0.00     0.000 S
ATOM     67   O  SGN F   4     -14.070  59.993 172.8080  0.00  0.00     0.000 OA
ATOM     68   O  SGN F   4     -13.079  58.747 174.6220  0.00  0.00     0.000 OA
ATOM     69   O  SGN F   4     -11.836  59.129 172.5600  0.00  0.00     0.000 OA
ATOM     70   O  SGN F   4     -13.920  54.946 173.7020  0.00  0.00     0.000 O
ATOM     72  HD  SGN F   4     -14.708  55.119 174.0170  0.00  0.00     0.000 HD
ATOM     72   C  SGN F   4     -18.806  55.402 173.1900  0.00  0.00     0.000 C
ATOM     73   O  SGN F   4     -18.836  55.737 174.5580  0.00  0.00     0.000 O
ATOM     74   S  SGN F   4     -20.096  56.196 175.3470  0.00  0.00     0.000 S
ATOM     75   O  SGN F   4     -21.234  55.528 174.8060  0.00  0.00     0.000 OA
ATOM     76   O  SGN F   4     -19.876  55.850 176.7500  0.00  0.00     0.000 OA
ATOM     77   O  SGN F   4     -20.169  57.580 175.0820  0.00  0.00     0.000 OA
BRANCH 58 78
ATOM     78  O4  IDS F   5     -16.075  57.474 170.9260  0.00  0.00     0.000 O
BRANCH 78 82
ATOM     79  C1  IDS F   5     -16.311  57.651 167.4530  0.00  0.00     0.000 C
ATOM     80  C2  IDS F   5     -14.992  57.915 168.1650  0.00  0.00     0.000 C
ATOM     81  C3  IDS F   5     -15.142  58.954 169.2790  0.00  0.00     0.000 C
ATOM     82  C4  IDS F   5     -16.352  58.623 170.1790  0.00  0.00     0.000 C
ATOM     83  C5  IDS F   5     -17.590  58.381 169.3130  0.00  0.00     0.000 C
ATOM     84  O5  IDS F   5     -17.340  57.364 168.3650  0.00  0.00     0.000 O
ATOM     85   O  IDS F   5     -16.601  58.763 166.6440  0.00  0.00     0.000 OA
ATOM     86   O  IDS F   5     -14.571  56.719 168.7590  0.00  0.00     0.000 O
ATOM     87   S  IDS F   5     -13.139  56.351 169.2690  0.00  0.00     0.000 S
ATOM     88   O  IDS F   5     -12.513  57.571 169.7040  0.00  0.00     0.000 OA
ATOM     89   O  IDS F   5     -13.327  55.418 170.3560  0.00  0.00     0.000 OA
ATOM     90   O  IDS F   5     -12.474  55.785 168.1250  0.00  0.00     0.000 OA
ATOM     91   O  IDS F   5     -15.349  60.216 168.6780  0.00  0.00     0.000 O
ATOM     93  HD  IDS F   5     -16.203  60.312 168.7840  0.00  0.00     0.000 HD
ATOM     93   O  IDS F   5     -19.397  57.015 170.0280  0.00  0.00     0.000 OA
ATOM     94   O  IDS F   5     -19.337  58.920 170.8440  0.00  0.00     0.000 OA
ATOM     95   C  IDS F   5     -18.850  58.085 170.1050  0.00  0.00     0.000 C
ENDBRANCH 78 82
ENDBRANCH 58 78
ENDBRANCH 57 61
ENDBRANCH 41 57
ENDBRANCH 40 44
ENDBRANCH 20 40
ENDBRANCH 19 23
ENDBRANCH 1 19
TORSDOF 8
ENDMDL
MODEL 93
REMARK VINA RESULT:      -4.4      3.500     11.123
FFDIST PL LJ 2322 74 36 -1
ROOT
ATOM      1  C1  IDS F   1     -20.215  56.928 168.3530  0.00  0.00     0.000 C
ATOM      2  C2  IDS F   1     -21.506  56.101 168.4660  0.00  0.00     0.000 C
ATOM      3  C3  IDS F   1     -22.450  56.275 167.2520  0.00  0.00     0.000 C
ATOM      4  C4  IDS F   1     -21.714  56.389 165.8960  0.00  0.00     0.000 C
ATOM      5  C5  IDS F   1     -20.432  57.214 166.0540  0.00  0.00     0.000 C
ATOM      6  O5  IDS F   1     -19.655  56.704 167.0870  0.00  0.00     0.000 O
ATOM      7   S  IDS F   1     -22.116  53.540 169.0780  0.00  0.00     0.000 S
ATOM      8   O  IDS F   1     -23.344  53.685 168.3580  0.00  0.00     0.000 OA
ATOM      9   O  IDS F   1     -21.469  52.301 168.7570  0.00  0.00     0.000 OA
ATOM     10   O  IDS F   1     -22.258  53.757 170.4990  0.00  0.00     0.000 OA
ATOM     11   O  IDS F   1     -21.195  54.725 168.5560  0.00  0.00     0.000 O
ATOM     12   O  IDS F   1     -23.229  57.454 167.4420  0.00  0.00     0.000 O
ATOM     14  HD  IDS F   1     -23.525  57.999 166.8370  0.00  0.00     0.000 HD
ATOM     14   O  IDS F   1     -21.390  55.085 165.4830  0.00  0.00     0.000 O
ATOM     16  HD  IDS F   1     -21.685  55.630 164.8790  0.00  0.00     0.000 HD
ATOM     16   O  IDS F   1     -18.354  57.306 164.8960  0.00  0.00     0.000 OA
ATOM     17   O  IDS F   1     -20.059  57.585 163.7170  0.00  0.00     0.000 OA
ATOM     18   C  IDS F   1     -19.573  57.374 164.8160  0.00  0.00     0.000 C
ENDROOT
BRANCH 1 19
ATOM     19  O4  SGN F   2     -19.311  56.485 169.3070  0.00  0.00     0.000 O
BRANCH 19 23
ATOM     20  C1  SGN F   2     -17.273  57.672 172.7470  0.00  0.00     0.000 C
ATOM     21  C2  SGN F   2     -18.780  57.872 172.7790  0.00  0.00     0.000 C
ATOM     22  C3  SGN F   2     -19.478  56.942 171.7760  0.00  0.00     0.000 C
ATOM     23  C4  SGN F   2     -18.852  57.275 170.3830  0.00  0.00     0.000 C
ATOM     24  C5  SGN F   2     -17.389  57.010 170.5040  0.00  0.00     0.000 C
ATOM     25  O5  SGN F   2     -16.814  57.867 171.4380  0.00  0.00     0.000 O
ATOM     26   N  SGN F   2     -19.248  57.764 174.1820  0.00  0.00     0.000 N
ATOM     28  HD  SGN F   2     -19.904  57.365 174.5840  0.00  0.00     0.000 HD
ATOM     28   S  SGN F   2     -19.111  59.123 175.1520  0.00  0.00     0.000 S
ATOM     29   O  SGN F   2     -17.760  59.620 175.0150  0.00  0.00     0.000 OA
ATOM     30   O  SGN F   2     -20.094  60.046 174.6320  0.00  0.00     0.000 OA
ATOM     31   O  SGN F   2     -19.431  58.718 176.4730  0.00  0.00     0.000 OA
ATOM     32   O  SGN F   2     -20.869  57.238 171.7840  0.00  0.00     0.000 O
ATOM     34  HD  SGN F   2     -21.525  56.840 172.1860  0.00  0.00     0.000 HD
ATOM     34   C  SGN F   2     -16.660  57.234 169.2210  0.00  0.00     0.000 C
ATOM     35   O  SGN F   2     -16.975  58.532 168.8460  0.00  0.00     0.000 O
ATOM     36   S  SGN F   2     -16.357  59.336 167.7070  0.00  0.00     0.000 S
ATOM     37   O  SGN F   2     -17.476  59.751 166.9000  0.00  0.00     0.000 OA
ATOM     38   O  SGN F   2     -15.659  60.417 168.3680  0.00  0.00     0.000 OA
ATOM     39   O  SGN F   2     -15.450  58.443 166.9970  0.00  0.00     0.000 OA
BRANCH 20 40
ATOM     40  O4  IDS F   3     -16.911  56.398 173.2060  0.00  0.00     0.000 O
BRANCH 40 44
ATOM     41  C1  IDS F   3     -15.817  53.684 175.1120  0.00  0.00     0.000 C
ATOM     42  C2  IDS F   3     -16.653  54.765 175.7500  0.00  0.00     0.000 C
ATOM     43  C3  IDS F   3     -16.105  56.213 175.4530  0.00  0.00     0.000 C
ATOM     44  C4  IDS F   3     -15.728  56.384 173.9940  0.00  0.00     0.000 C
ATOM     45  C5  IDS F   3     -14.831  55.221 173.5690  0.00  0.00     0.000 C
ATOM     46  O5  IDS F   3     -15.512  53.999 173.7450  0.00  0.00     0.000 O
ATOM     47   O  IDS F   3     -19.627  55.675 176.6480  0.00  0.00     0.000 OA
ATOM     48   O  IDS F   3     -20.266  53.854 175.2800  0.00  0.00     0.000 OA
ATOM     49   O  IDS F   3     -18.805  53.541 177.1690  0.00  0.00     0.000 OA
ATOM     50   O  IDS F   3     -18.000  54.635 175.2820  0.00  0.00     0.000 O
ATOM     51   S  IDS F   3     -19.253  54.405 176.1390  0.00  0.00     0.000 S
ATOM     52   O  IDS F   3     -14.926  56.442 176.2180  0.00  0.00     0.000 O
ATOM     54  HD  IDS F   3     -15.624  55.950 176.3600  0.00  0.00     0.000 HD
ATOM     54   C  IDS F   3     -14.262  55.322 172.1500  0.00  0.00     0.000 C
ATOM     55   O  IDS F   3     -14.780  54.720 171.2130  0.00  0.00     0.000 OA
ATOM     56   O  IDS F   3     -13.271  56.022 171.9050  0.00  0.00     0.000 OA
BRANCH 41 57
ATOM     57  O4  SGN F   4     -14.667  53.493 175.8830  0.00  0.00     0.000 O
BRANCH 57 61
ATOM     58  C1  SGN F   4     -14.511  49.545 174.8140  0.00  0.00     0.000 C
ATOM     59  C2  SGN F   4     -14.865  49.838 176.2810  0.00  0.00     0.000 C
ATOM     60  C3  SGN F   4     -15.286  51.285 176.4720  0.00  0.00     0.000 C
ATOM     61  C4  SGN F   4     -14.198  52.185 175.8910  0.00  0.00     0.000 C
ATOM     62  C5  SGN F   4     -13.881  51.766 174.4420  0.00  0.00     0.000 C
ATOM     63  O5  SGN F   4     -13.508  50.423 174.3840  0.00  0.00     0.000 O
ATOM     64   N  SGN F   4     -15.885  48.922 176.7550  0.00  0.00     0.000 N
ATOM     66  HD  SGN F   4     -15.129  48.998 176.3400  0.00  0.00     0.000 HD
ATOM     66   S  SGN F   4     -15.391  47.487 177.3520  0.00  0.00     0.000 S
ATOM     67   O  SGN F   4     -14.872  46.740 176.2210  0.00  0.00     0.000 OA
ATOM     68   O  SGN F   4     -14.363  47.741 178.3590  0.00  0.00     0.000 OA
ATOM     69   O  SGN F   4     -16.606  46.914 177.8840  0.00  0.00     0.000 OA
ATOM     70   O  SGN F   4     -15.399  51.572 177.8590  0.00  0.00     0.000 O
ATOM     72  HD  SGN F   4     -14.643  51.647 177.4430  0.00  0.00     0.000 HD
ATOM     72   C  SGN F   4     -12.730  52.510 173.8170  0.00  0.00     0.000 C
ATOM     73   O  SGN F   4     -11.592  52.267 174.6120  0.00  0.00     0.000 O
ATOM     74   S  SGN F   4     -10.124  52.228 174.0960  0.00  0.00     0.000 S
ATOM     75   O  SGN F   4      -9.996  53.166 173.0300  0.00  0.00     0.000 OA
ATOM     76   O  SGN F   4      -9.262  52.567 175.2270  0.00  0.00     0.000 OA
ATOM     77   O  SGN F   4      -9.976  50.912 173.6120  0.00  0.00     0.000 OA
BRANCH 58 78
ATOM     78  O4  IDS F   5     -15.654  49.630 173.9980  0.00  0.00     0.000 O
BRANCH 78 82
ATOM     79  C1  IDS F   5     -18.339  49.174 171.8220  0.00  0.00     0.000 C
ATOM     80  C2  IDS F   5     -18.426  48.741 173.2790  0.00  0.00     0.000 C
ATOM     81  C3  IDS F   5     -17.244  47.857 173.6830  0.00  0.00     0.000 C
ATOM     82  C4  IDS F   5     -15.908  48.486 173.2340  0.00  0.00     0.000 C
ATOM     83  C5  IDS F   5     -15.987  48.868 171.7550  0.00  0.00     0.000 C
ATOM     84  O5  IDS F   5     -17.084  49.728 171.5240  0.00  0.00     0.000 O
ATOM     85   O  IDS F   5     -18.644  48.063 171.0170  0.00  0.00     0.000 OA
ATOM     86   O  IDS F   5     -18.384  49.890 174.0780  0.00  0.00     0.000 O
ATOM     87   S  IDS F   5     -18.812  50.036 175.5750  0.00  0.00     0.000 S
ATOM     88   O  IDS F   5     -18.577  48.768 176.2130  0.00  0.00     0.000 OA
ATOM     89   O  IDS F   5     -17.987  51.086 176.1280  0.00  0.00     0.000 OA
ATOM     90   O  IDS F   5     -20.213  50.360 175.5280  0.00  0.00     0.000 OA
ATOM     91   O  IDS F   5     -17.397  46.602 173.0490  0.00  0.00     0.000 O
ATOM     93  HD  IDS F   5     -16.827  46.675 172.4010  0.00  0.00     0.000 HD
ATOM     93   O  IDS F   5     -14.664  50.603 170.8150  0.00  0.00     0.000 OA
ATOM     94   O  IDS F   5     -13.685  48.804 171.1380  0.00  0.00     0.000 OA
ATOM     95   C  IDS F   5     -14.706  49.463 171.2010  0.00  0.00     0.000 C
ENDBRANCH 78 82
ENDBRANCH 58 78
ENDBRANCH 57 61
ENDBRANCH 41 57
ENDBRANCH 40 44
ENDBRANCH 20 40
ENDBRANCH 19 23
ENDBRANCH 1 19
TORSDOF 8
ENDMDL
MODEL 94
REMARK VINA RESULT:      -4.4      3.244     11.444
FFDIST PL LJ 2322 74 36 -1
ROOT
ATOM      1  C1  IDS F   1     -20.271  55.920 168.9870  0.00  0.00     0.000 C
ATOM      2  C2  IDS F   1     -21.518  55.575 168.1560  0.00  0.00     0.000 C
ATOM      3  C3  IDS F   1     -21.675  56.461 166.8960  0.00  0.00     0.000 C
ATOM      4  C4  IDS F   1     -20.339  56.794 166.1930  0.00  0.00     0.000 C
ATOM      5  C5  IDS F   1     -19.239  57.045 167.2300  0.00  0.00     0.000 C
ATOM      6  O5  IDS F   1     -19.168  55.983 168.1230  0.00  0.00     0.000 O
ATOM      7   S  IDS F   1     -22.635  53.312 167.1920  0.00  0.00     0.000 S
ATOM      8   O  IDS F   1     -23.292  54.091 166.1870  0.00  0.00     0.000 OA
ATOM      9   O  IDS F   1     -22.057  52.125 166.6320  0.00  0.00     0.000 OA
ATOM     10   O  IDS F   1     -23.464  53.052 168.3460  0.00  0.00     0.000 OA
ATOM     11   O  IDS F   1     -21.452  54.234 167.7150  0.00  0.00     0.000 O
ATOM     12   O  IDS F   1     -22.305  57.684 167.2700  0.00  0.00     0.000 O
ATOM     14  HD  IDS F   1     -22.184  58.470 166.9280  0.00  0.00     0.000 HD
ATOM     14   O  IDS F   1     -19.995  55.687 165.3970  0.00  0.00     0.000 O
ATOM     16  HD  IDS F   1     -19.874  56.474 165.0550  0.00  0.00     0.000 HD
ATOM     16   O  IDS F   1     -16.866  56.853 167.2270  0.00  0.00     0.000 OA
ATOM     17   O  IDS F   1     -17.677  58.067 165.7280  0.00  0.00     0.000 OA
ATOM     18   C  IDS F   1     -17.853  57.338 166.6910  0.00  0.00     0.000 C
ENDROOT
BRANCH 1 19
ATOM     19  O4  SGN F   2     -20.044  54.903 169.9010  0.00  0.00     0.000 O
BRANCH 19 23
ATOM     20  C1  SGN F   2     -20.509  53.973 173.9400  0.00  0.00     0.000 C
ATOM     21  C2  SGN F   2     -21.782  53.930 173.1100  0.00  0.00     0.000 C
ATOM     22  C3  SGN F   2     -21.459  53.733 171.6210  0.00  0.00     0.000 C
ATOM     23  C4  SGN F   2     -20.520  54.919 171.2300  0.00  0.00     0.000 C
ATOM     24  C5  SGN F   2     -19.317  54.812 172.1070  0.00  0.00     0.000 C
ATOM     25  O5  SGN F   2     -19.672  54.980 173.4420  0.00  0.00     0.000 O
ATOM     26   N  SGN F   2     -22.706  52.932 173.7000  0.00  0.00     0.000 N
ATOM     28  HD  SGN F   2     -23.207  52.297 173.3900  0.00  0.00     0.000 HD
ATOM     28   S  SGN F   2     -23.646  53.420 174.9990  0.00  0.00     0.000 S
ATOM     29   O  SGN F   2     -22.768  54.053 175.9570  0.00  0.00     0.000 OA
ATOM     30   O  SGN F   2     -24.603  54.344 174.4330  0.00  0.00     0.000 OA
ATOM     31   O  SGN F   2     -24.284  52.258 175.5020  0.00  0.00     0.000 OA
ATOM     32   O  SGN F   2     -22.676  53.793 170.8870  0.00  0.00     0.000 O
ATOM     34  HD  SGN F   2     -23.176  53.158 170.5780  0.00  0.00     0.000 HD
ATOM     34   C  SGN F   2     -18.296  55.858 171.8070  0.00  0.00     0.000 C
ATOM     35   O  SGN F   2     -18.971  57.065 171.9110  0.00  0.00     0.000 O
ATOM     36   S  SGN F   2     -18.364  58.464 171.8800  0.00  0.00     0.000 S
ATOM     37   O  SGN F   2     -19.070  59.149 170.8260  0.00  0.00     0.000 OA
ATOM     38   O  SGN F   2     -18.608  58.989 173.2060  0.00  0.00     0.000 OA
ATOM     39   O  SGN F   2     -16.943  58.307 171.5980  0.00  0.00     0.000 OA
BRANCH 20 40
ATOM     40  O4  IDS F   3     -19.844  52.738 173.9320  0.00  0.00     0.000 O
BRANCH 40 44
ATOM     41  C1  IDS F   3     -18.573  49.575 174.6850  0.00  0.00     0.000 C
ATOM     42  C2  IDS F   3     -20.019  49.893 174.9700  0.00  0.00     0.000 C
ATOM     43  C3  IDS F   3     -20.200  51.241 175.7670  0.00  0.00     0.000 C
ATOM     44  C4  IDS F   3     -19.334  52.351 175.2000  0.00  0.00     0.000 C
ATOM     45  C5  IDS F   3     -17.901  51.839 175.0520  0.00  0.00     0.000 C
ATOM     46  O5  IDS F   3     -17.873  50.726 174.1880  0.00  0.00     0.000 O
ATOM     47   O  IDS F   3     -23.070  49.682 173.9090  0.00  0.00     0.000 OA
ATOM     48   O  IDS F   3     -22.001  49.111 171.8770  0.00  0.00     0.000 OA
ATOM     49   O  IDS F   3     -21.646  47.818 173.8790  0.00  0.00     0.000 OA
ATOM     50   O  IDS F   3     -20.727  49.949 173.7260  0.00  0.00     0.000 O
ATOM     51   S  IDS F   3     -21.929  49.087 173.3140  0.00  0.00     0.000 S
ATOM     52   O  IDS F   3     -19.802  51.052 177.1210  0.00  0.00     0.000 O
ATOM     54  HD  IDS F   3     -20.135  50.512 176.5320  0.00  0.00     0.000 HD
ATOM     54   C  IDS F   3     -16.877  52.890 174.6090  0.00  0.00     0.000 C
ATOM     55   O  IDS F   3     -16.524  52.979 173.4360  0.00  0.00     0.000 OA
ATOM     56   O  IDS F   3     -16.384  53.687 175.4190  0.00  0.00     0.000 OA
BRANCH 41 57
ATOM     57  O4  SGN F   4     -17.990  49.060 175.8470  0.00  0.00     0.000 O
BRANCH 57 61
ATOM     58  C1  SGN F   4     -15.659  46.378 173.8160  0.00  0.00     0.000 C
ATOM     59  C2  SGN F   4     -17.065  45.896 174.2060  0.00  0.00     0.000 C
ATOM     60  C3  SGN F   4     -17.967  47.060 174.5800  0.00  0.00     0.000 C
ATOM     61  C4  SGN F   4     -17.262  47.893 175.6490  0.00  0.00     0.000 C
ATOM     62  C5  SGN F   4     -15.844  48.269 175.1780  0.00  0.00     0.000 C
ATOM     63  O5  SGN F   4     -15.107  47.128 174.8610  0.00  0.00     0.000 O
ATOM     64   N  SGN F   4     -17.646  45.095 173.1460  0.00  0.00     0.000 N
ATOM     66  HD  SGN F   4     -16.947  45.230 173.6400  0.00  0.00     0.000 HD
ATOM     66   S  SGN F   4     -17.303  43.501 173.1320  0.00  0.00     0.000 S
ATOM     67   O  SGN F   4     -15.895  43.396 172.7990  0.00  0.00     0.000 OA
ATOM     68   O  SGN F   4     -17.593  42.959 174.4580  0.00  0.00     0.000 OA
ATOM     69   O  SGN F   4     -18.159  42.987 172.0860  0.00  0.00     0.000 OA
ATOM     70   O  SGN F   4     -19.179  46.568 175.1340  0.00  0.00     0.000 O
ATOM     72  HD  SGN F   4     -18.480  46.703 175.6280  0.00  0.00     0.000 HD
ATOM     72   C  SGN F   4     -15.015  48.985 176.2120  0.00  0.00     0.000 C
ATOM     73   O  SGN F   4     -14.904  48.130 177.3270  0.00  0.00     0.000 O
ATOM     74   S  SGN F   4     -13.700  48.084 178.3110  0.00  0.00     0.000 S
ATOM     75   O  SGN F   4     -13.168  49.400 178.4350  0.00  0.00     0.000 OA
ATOM     76   O  SGN F   4     -14.205  47.578 179.5870  0.00  0.00     0.000 OA
ATOM     77   O  SGN F   4     -12.773  47.239 177.6640  0.00  0.00     0.000 OA
BRANCH 58 78
ATOM     78  O4  IDS F   5     -15.699  47.116 172.6180  0.00  0.00     0.000 O
BRANCH 78 82
ATOM     79  C1  IDS F   5     -15.063  48.746 169.6030  0.00  0.00     0.000 C
ATOM     80  C2  IDS F   5     -16.011  47.556 169.6690  0.00  0.00     0.000 C
ATOM     81  C3  IDS F   5     -15.369  46.353 170.3640  0.00  0.00     0.000 C
ATOM     82  C4  IDS F   5     -14.707  46.775 171.6930  0.00  0.00     0.000 C
ATOM     83  C5  IDS F   5     -13.795  47.980 171.4570  0.00  0.00     0.000 C
ATOM     84  O5  IDS F   5     -14.518  49.039 170.8630  0.00  0.00     0.000 O
ATOM     85   O  IDS F   5     -14.078  48.467 168.6400  0.00  0.00     0.000 OA
ATOM     86   O  IDS F   5     -17.129  47.931 170.4230  0.00  0.00     0.000 O
ATOM     87   S  IDS F   5     -18.530  47.238 170.4740  0.00  0.00     0.000 S
ATOM     88   O  IDS F   5     -18.322  45.834 170.2380  0.00  0.00     0.000 OA
ATOM     89   O  IDS F   5     -19.058  47.496 171.7950  0.00  0.00     0.000 OA
ATOM     90   O  IDS F   5     -19.285  47.854 169.4160  0.00  0.00     0.000 OA
ATOM     91   O  IDS F   5     -14.378  45.825 169.5050  0.00  0.00     0.000 O
ATOM     93  HD  IDS F   5     -13.658  46.134 169.8740  0.00  0.00     0.000 HD
ATOM     93   O  IDS F   5     -13.276  49.540 173.1710  0.00  0.00     0.000 OA
ATOM     94   O  IDS F   5     -12.243  47.745 173.2510  0.00  0.00     0.000 OA
ATOM     95   C  IDS F   5     -13.062  48.454 172.6980  0.00  0.00     0.000 C
ENDBRANCH 78 82
ENDBRANCH 58 78
ENDBRANCH 57 61
ENDBRANCH 41 57
ENDBRANCH 40 44
ENDBRANCH 20 40
ENDBRANCH 19 23
ENDBRANCH 1 19
TORSDOF 8
ENDMDL
