FFDIST PL LJ 2322 74 36 -1
ROOT
ATOM      1  C1  IDS F   1     -10.540  48.756  172.550  0.00  0.00     0.000 C
ATOM      2  C2  IDS F   1      -9.980  49.261  171.210  0.00  0.00     0.000 C
ATOM      3  C3  IDS F   1      -8.610  49.968  171.350  0.00  0.00     0.000 C
ATOM      4  C4  IDS F   1      -7.670  49.315  172.390  0.00  0.00     0.000 C
ATOM      5  C5  IDS F   1      -8.470  48.845  173.610  0.00  0.00     0.000 C
ATOM      6  O5  IDS F   1      -9.530  48.041  173.210  0.00  0.00     0.000 O
ATOM      7   S  IDS F   1      -9.640  48.220  168.740  0.00  0.00     0.000 S
ATOM      8   O  IDS F   1      -8.610  49.185  168.500  0.00  0.00     0.000 OA
ATOM      9   O  IDS F   1      -9.240  46.915  168.300  0.00  0.00     0.000 OA
ATOM     10   O  IDS F   1     -10.930  48.623  168.230  0.00  0.00     0.000 OA
ATOM     11   O  IDS F   1      -9.800  48.178  170.320  0.00  0.00     0.000 O
ATOM     12   O  IDS F   1      -8.830  51.324  171.730  0.00  0.00     0.000 O
ATOM     14  HD  IDS F   1      -8.330  51.824  172.230  0.00  0.00     0.000 HD
ATOM     14   O  IDS F   1      -7.060  48.210  171.770  0.00  0.00     0.000 O
ATOM     16  HD  IDS F   1      -6.560  48.710  172.270  0.00  0.00     0.000 HD
ATOM     16   O  IDS F   1      -8.160  47.157  175.260  0.00  0.00     0.000 OA
ATOM     17   O  IDS F   1      -6.590  48.525  175.060  0.00  0.00     0.000 OA
ATOM     18   C  IDS F   1      -7.690  48.138  174.700  0.00  0.00     0.000 C
ENDROOT
BRANCH 1 19
ATOM     19  O4  SGN F   2     -11.590  47.885  172.300  0.00  0.00     0.000 O
BRANCH 19 23
ATOM     20  C1  SGN F   2     -14.950  47.923  174.770  0.00  0.00     0.000 C
ATOM     21  C2  SGN F   2     -13.620  47.726  175.480  0.00  0.00     0.000 C
ATOM     22  C3  SGN F   2     -12.460  48.264  174.630  0.00  0.00     0.000 C
ATOM     23  C4  SGN F   2     -12.540  47.499  173.270  0.00  0.00     0.000 C
ATOM     24  C5  SGN F   2     -13.880  47.808  172.690  0.00  0.00     0.000 C
ATOM     25  O5  SGN F   2     -14.890  47.314  173.510  0.00  0.00     0.000 O
ATOM     26   N  SGN F   2     -13.720  48.284  176.850  0.00  0.00     0.000 N
ATOM     28  HD  SGN F   2     -13.220  48.784  177.350  0.00  0.00     0.000 HD
ATOM     28   S  SGN F   2     -14.420  47.322  178.030  0.00  0.00     0.000 S
ATOM     29   O  SGN F   2     -15.670  46.825  177.500  0.00  0.00     0.000 OA
ATOM     30   O  SGN F   2     -13.460  46.266  178.260  0.00  0.00     0.000 OA
ATOM     31   O  SGN F   2     -14.580  48.135  179.180  0.00  0.00     0.000 OA
ATOM     32   O  SGN F   2     -11.240  47.970  175.300  0.00  0.00     0.000 O
ATOM     34  HD  SGN F   2     -10.740  48.470  175.800  0.00  0.00     0.000 HD
ATOM     34   C  SGN F   2     -14.080  47.183  171.350  0.00  0.00     0.000 C
ATOM     35   O  SGN F   2     -13.840  45.830  171.540  0.00  0.00     0.000 O
ATOM     36   S  SGN F   2     -14.080  44.704  170.540  0.00  0.00     0.000 S
ATOM     37   O  SGN F   2     -12.810  44.032  170.430  0.00  0.00     0.000 OA
ATOM     38   O  SGN F   2     -15.130  43.910  171.140  0.00  0.00     0.000 OA
ATOM     39   O  SGN F   2     -14.500  45.325  169.290  0.00  0.00     0.000 OA
BRANCH 20 40
ATOM     40  O4  IDS F   3     -15.270  49.282  174.640  0.00  0.00     0.000 O
BRANCH 40 44
ATOM     41  C1  IDS F   3     -16.790  52.425  174.700  0.00  0.00     0.000 C
ATOM     42  C2  IDS F   3     -16.840  51.540  175.920  0.00  0.00     0.000 C
ATOM     43  C3  IDS F   3     -17.320  50.075  175.590  0.00  0.00     0.000 C
ATOM     44  C4  IDS F   3     -16.640  49.526  174.350  0.00  0.00     0.000 C
ATOM     45  C5  IDS F   3     -16.760  50.548  173.220  0.00  0.00     0.000 C
ATOM     46  O5  IDS F   3     -16.150  51.761  173.600  0.00  0.00     0.000 O
ATOM     47   O  IDS F   3     -15.510  50.852  178.790  0.00  0.00     0.000 OA
ATOM     48   O  IDS F   3     -13.770  52.230  177.970  0.00  0.00     0.000 OA
ATOM     49   O  IDS F   3     -16.020  53.062  178.190  0.00  0.00     0.000 OA
ATOM     50   O  IDS F   3     -15.540  51.517  176.520  0.00  0.00     0.000 O
ATOM     51   S  IDS F   3     -15.180  51.946  177.950  0.00  0.00     0.000 S
ATOM     52   O  IDS F   3     -18.720  50.079  175.330  0.00  0.00     0.000 O
ATOM     54  HD  IDS F   3     -18.220  50.579  175.830  0.00  0.00     0.000 HD
ATOM     54   C  IDS F   3     -16.230  50.081  171.860  0.00  0.00     0.000 C
ATOM     55   O  IDS F   3     -15.110  50.402  171.470  0.00  0.00     0.000 OA
ATOM     56   O  IDS F   3     -16.910  49.358  171.120  0.00  0.00     0.000 OA
BRANCH 41 57
ATOM     57  O4  SGN F   4     -18.090  52.835  174.390  0.00  0.00     0.000 O
BRANCH 57 61
ATOM     58  C1  SGN F   4     -19.800  56.333  173.130  0.00  0.00     0.000 C
ATOM     59  C2  SGN F   4     -19.410  55.333  172.030  0.00  0.00     0.000 C
ATOM     60  C3  SGN F   4     -19.170  53.946  172.600  0.00  0.00     0.000 C
ATOM     61  C4  SGN F   4     -18.160  54.061  173.740  0.00  0.00     0.000 C
ATOM     62  C5  SGN F   4     -18.620  55.130  174.750  0.00  0.00     0.000 C
ATOM     63  O5  SGN F   4     -18.810  56.360  174.120  0.00  0.00     0.000 O
ATOM     64   N  SGN F   4     -20.410  55.309  170.980  0.00  0.00     0.000 N
ATOM     66  HD  SGN F   4     -19.910  55.809  171.480  0.00  0.00     0.000 HD
ATOM     66   S  SGN F   4     -20.270  56.404  169.780  0.00  0.00     0.000 S
ATOM     67   O  SGN F   4     -20.550  57.695  170.380  0.00  0.00     0.000 OA
ATOM     68   O  SGN F   4     -18.910  56.330  169.250  0.00  0.00     0.000 OA
ATOM     69   O  SGN F   4     -21.290  55.997  168.840  0.00  0.00     0.000 OA
ATOM     70   O  SGN F   4     -18.610  53.107  171.600  0.00  0.00     0.000 O
ATOM     72  HD  SGN F   4     -18.110  53.607  172.100  0.00  0.00     0.000 HD
ATOM     72   C  SGN F   4     -17.630  55.413  175.850  0.00  0.00     0.000 C
ATOM     73   O  SGN F   4     -16.440  55.857  175.240  0.00  0.00     0.000 O
ATOM     74   S  SGN F   4     -15.420  56.849  175.870  0.00  0.00     0.000 S
ATOM     75   O  SGN F   4     -15.400  56.640  177.280  0.00  0.00     0.000 OA
ATOM     76   O  SGN F   4     -14.120  56.575  175.260  0.00  0.00     0.000 OA
ATOM     77   O  SGN F   4     -15.960  58.117  175.570  0.00  0.00     0.000 OA
BRANCH 58 78
ATOM     78  O4  IDS F   5     -21.060  56.015  173.670  0.00  0.00     0.000 O
BRANCH 78 82
ATOM     79  C1  IDS F   5     -23.720  56.123  175.920  0.00  0.00     0.000 C
ATOM     80  C2  IDS F   5     -23.940  55.752  174.460  0.00  0.00     0.000 C
ATOM     81  C3  IDS F   5     -23.330  56.785  173.510  0.00  0.00     0.000 C
ATOM     82  C4  IDS F   5     -21.880  57.120  173.920  0.00  0.00     0.000 C
ATOM     83  C5  IDS F   5     -21.830  57.464  175.410  0.00  0.00     0.000 C
ATOM     84  O5  IDS F   5     -22.370  56.410  176.180  0.00  0.00     0.000 O
ATOM     85   O  IDS F   5     -24.570  57.199  176.230  0.00  0.00     0.000 OA
ATOM     86   O  IDS F   5     -23.300  54.530  174.220  0.00  0.00     0.000 O
ATOM     87   S  IDS F   5     -23.530  53.542  173.030  0.00  0.00     0.000 S
ATOM     88   O  IDS F   5     -23.920  54.329  171.890  0.00  0.00     0.000 OA
ATOM     89   O  IDS F   5     -22.270  52.866  172.820  0.00  0.00     0.000 OA
ATOM     90   O  IDS F   5     -24.590  52.674  173.470  0.00  0.00     0.000 OA
ATOM     91   O  IDS F   5     -24.110  57.962  173.580  0.00  0.00     0.000 O
ATOM     93  HD  IDS F   5     -23.610  58.462  174.080  0.00  0.00     0.000 HD
ATOM     93   O  IDS F   5     -19.870  57.171  176.720  0.00  0.00     0.000 OA
ATOM     94   O  IDS F   5     -19.890  58.847  175.500  0.00  0.00     0.000 OA
ATOM     95   C  IDS F   5     -20.450  57.848  175.910  0.00  0.00     0.000 C
ENDBRANCH 78 82
ENDBRANCH 58 78
ENDBRANCH 57 61
ENDBRANCH 41 57
ENDBRANCH 40 44
ENDBRANCH 20 40
ENDBRANCH 19 23
ENDBRANCH 1 19
TORSDOF 8