MODEL 1
REMARK VINA RESULT:      -8.6      0.000      0.000
FFDIST PL LJ 2322 74 36 -1
ROOT
ATOM      1  C1  IDS F   1     -10.140  47.485 171.6800  0.00  0.00     0.000 C
ATOM      2  C2  IDS F   1      -8.859  47.711 172.5000  0.00  0.00     0.000 C
ATOM      3  C3  IDS F   1      -7.581  47.216 171.7810  0.00  0.00     0.000 C
ATOM      4  C4  IDS F   1      -7.583  47.466 170.2540  0.00  0.00     0.000 C
ATOM      5  C5  IDS F   1      -8.983  47.228 169.6780  0.00  0.00     0.000 C
ATOM      6  O5  IDS F   1      -9.925  47.968 170.3810  0.00  0.00     0.000 O
ATOM      7   S  IDS F   1      -7.775  49.776 173.8640  0.00  0.00     0.000 S
ATOM      8   O  IDS F   1      -6.485  49.173 173.7060  0.00  0.00     0.000 OA
ATOM      9   O  IDS F   1      -7.726  51.182 173.5890  0.00  0.00     0.000 OA
ATOM     10   O  IDS F   1      -8.400  49.463 175.1280  0.00  0.00     0.000 OA
ATOM     11   O  IDS F   1      -8.684  49.090 172.7570  0.00  0.00     0.000 O
ATOM     12   O  IDS F   1      -7.439  45.816 172.0080  0.00  0.00     0.000 O
ATOM     14  HD  IDS F   1      -7.101  45.223 171.4760  0.00  0.00     0.000 HD
ATOM     14   O  IDS F   1      -7.207  48.805 170.0470  0.00  0.00     0.000 O
ATOM     16  HD  IDS F   1      -6.869  48.211 169.5140  0.00  0.00     0.000 HD
ATOM     16   O  IDS F   1     -10.163  48.034 167.7740  0.00  0.00     0.000 OA
ATOM     17   O  IDS F   1      -8.316  47.133 167.3780  0.00  0.00     0.000 OA
ATOM     18   C  IDS F   1      -9.156  47.480 168.1940  0.00  0.00     0.000 C
ENDROOT
BRANCH 1 19
ATOM     19  O4  SGN F   2     -11.172  48.219 172.2460  0.00  0.00     0.000 O
BRANCH 19 23
ATOM     20  C1  SGN F   2     -14.593  47.801 174.5950  0.00  0.00     0.000 C
ATOM     21  C2  SGN F   2     -13.272  47.633 175.3290  0.00  0.00     0.000 C
ATOM     22  C3  SGN F   2     -12.131  48.324 174.5700  0.00  0.00     0.000 C
ATOM     23  C4  SGN F   2     -12.119  47.682 173.1450  0.00  0.00     0.000 C
ATOM     24  C5  SGN F   2     -13.461  47.948 172.5500  0.00  0.00     0.000 C
ATOM     25  O5  SGN F   2     -14.455  47.314 173.2890  0.00  0.00     0.000 O
ATOM     26   N  SGN F   2     -13.450  48.056 176.7390  0.00  0.00     0.000 N
ATOM     28  HD  SGN F   2     -13.001  48.542 177.2980  0.00  0.00     0.000 HD
ATOM     28   S  SGN F   2     -14.111  46.945 177.8050  0.00  0.00     0.000 S
ATOM     29   O  SGN F   2     -15.307  46.413 177.1910  0.00  0.00     0.000 OA
ATOM     30   O  SGN F   2     -13.084  45.942 177.9730  0.00  0.00     0.000 OA
ATOM     31   O  SGN F   2     -14.361  47.638 179.0160  0.00  0.00     0.000 OA
ATOM     32   O  SGN F   2     -10.912  48.056 175.2520  0.00  0.00     0.000 O
ATOM     34  HD  SGN F   2     -10.463  48.542 175.8110  0.00  0.00     0.000 HD
ATOM     34   C  SGN F   2     -13.578  47.435 171.1540  0.00  0.00     0.000 C
ATOM     35   O  SGN F   2     -13.247  46.090 171.2320  0.00  0.00     0.000 O
ATOM     36   S  SGN F   2     -13.378  45.045 170.1290  0.00  0.00     0.000 S
ATOM     37   O  SGN F   2     -12.060  44.475 170.0030  0.00  0.00     0.000 OA
ATOM     38   O  SGN F   2     -14.384  44.129 170.6210  0.00  0.00     0.000 OA
ATOM     39   O  SGN F   2     -13.807  45.746 168.9250  0.00  0.00     0.000 OA
BRANCH 20 40
ATOM     40  O4  IDS F   3     -15.006  49.140 174.5740  0.00  0.00     0.000 O
BRANCH 40 44
ATOM     41  C1  IDS F   3     -16.700  52.186 174.7870  0.00  0.00     0.000 C
ATOM     42  C2  IDS F   3     -16.638  51.273 175.9860  0.00  0.00     0.000 C
ATOM     43  C3  IDS F   3     -17.049  49.790 175.6420  0.00  0.00     0.000 C
ATOM     44  C4  IDS F   3     -16.401  49.310 174.3570  0.00  0.00     0.000 C
ATOM     45  C5  IDS F   3     -16.636  50.348 173.2610  0.00  0.00     0.000 C
ATOM     46  O5  IDS F   3     -16.078  51.586 173.6410  0.00  0.00     0.000 O
ATOM     47   O  IDS F   3     -15.129  50.600 178.7690  0.00  0.00     0.000 OA
ATOM     48   O  IDS F   3     -13.515  52.096 177.9010  0.00  0.00     0.000 OA
ATOM     49   O  IDS F   3     -15.795  52.789 178.2510  0.00  0.00     0.000 OA
ATOM     50   O  IDS F   3     -15.311  51.313 176.5210  0.00  0.00     0.000 O
ATOM     51   S  IDS F   3     -14.905  51.730 177.9420  0.00  0.00     0.000 S
ATOM     52   O  IDS F   3     -18.458  49.717 175.4510  0.00  0.00     0.000 O
ATOM     54  HD  IDS F   3     -17.963  50.235 175.9380  0.00  0.00     0.000 HD
ATOM     54   C  IDS F   3     -16.148  49.943 171.8650  0.00  0.00     0.000 C
ATOM     55   O  IDS F   3     -15.069  50.338 171.4300  0.00  0.00     0.000 OA
ATOM     56   O  IDS F   3     -16.821  49.198 171.1410  0.00  0.00     0.000 OA
BRANCH 41 57
ATOM     57  O4  SGN F   4     -18.035  52.526 174.5510  0.00  0.00     0.000 O
BRANCH 57 61
ATOM     58  C1  SGN F   4     -19.989  55.866 173.2180  0.00  0.00     0.000 C
ATOM     59  C2  SGN F   4     -19.615  54.826 172.1500  0.00  0.00     0.000 C
ATOM     60  C3  SGN F   4     -19.273  53.485 172.7750  0.00  0.00     0.000 C
ATOM     61  C4  SGN F   4     -18.205  53.710 173.8440  0.00  0.00     0.000 C
ATOM     62  C5  SGN F   4     -18.657  54.810 174.8230  0.00  0.00     0.000 C
ATOM     63  O5  SGN F   4     -18.945  55.993 174.1430  0.00  0.00     0.000 O
ATOM     64   N  SGN F   4     -20.672  54.698 171.1660  0.00  0.00     0.000 N
ATOM     66  HD  SGN F   4     -20.169  55.247 171.6070  0.00  0.00     0.000 HD
ATOM     66   S  SGN F   4     -20.658  55.731 169.9040  0.00  0.00     0.000 S
ATOM     67   O  SGN F   4     -20.966  57.038 170.4520  0.00  0.00     0.000 OA
ATOM     68   O  SGN F   4     -19.329  55.691 169.2960  0.00  0.00     0.000 OA
ATOM     69   O  SGN F   4     -21.710  55.226 169.0510  0.00  0.00     0.000 OA
ATOM     70   O  SGN F   4     -18.731  52.620 171.7880  0.00  0.00     0.000 O
ATOM     72  HD  SGN F   4     -18.228  53.169 172.2300  0.00  0.00     0.000 HD
ATOM     72   C  SGN F   4     -17.620  55.199 175.8440  0.00  0.00     0.000 C
ATOM     73   O  SGN F   4     -16.491  55.664 175.1400  0.00  0.00     0.000 O
ATOM     74   S  SGN F   4     -15.487  56.736 175.6540  0.00  0.00     0.000 S
ATOM     75   O  SGN F   4     -15.374  56.605 177.0690  0.00  0.00     0.000 OA
ATOM     76   O  SGN F   4     -14.213  56.490 174.9800  0.00  0.00     0.000 OA
ATOM     77   O  SGN F   4     -16.106  57.959 175.3220  0.00  0.00     0.000 OA
BRANCH 58 78
ATOM     78  O4  IDS F   5     -21.198  55.519 173.8500  0.00  0.00     0.000 O
BRANCH 78 82
ATOM     79  C1  IDS F   5     -24.227  55.378 175.5690  0.00  0.00     0.000 C
ATOM     80  C2  IDS F   5     -24.172  55.210 174.0570  0.00  0.00     0.000 C
ATOM     81  C3  IDS F   5     -23.403  56.349 173.3830  0.00  0.00     0.000 C
ATOM     82  C4  IDS F   5     -22.055  56.597 174.0930  0.00  0.00     0.000 C
ATOM     83  C5  IDS F   5     -22.282  56.737 175.6000  0.00  0.00     0.000 C
ATOM     84  O5  IDS F   5     -22.949  55.601 176.1080  0.00  0.00     0.000 O
ATOM     85   O  IDS F   5     -25.125  56.419 175.8610  0.00  0.00     0.000 OA
ATOM     86   O  IDS F   5     -23.493  54.019 173.7750  0.00  0.00     0.000 O
ATOM     87   S  IDS F   5     -23.495  53.204 172.4410  0.00  0.00     0.000 S
ATOM     88   O  IDS F   5     -23.672  54.144 171.3650  0.00  0.00     0.000 OA
ATOM     89   O  IDS F   5     -22.214  52.537 172.3750  0.00  0.00     0.000 OA
ATOM     90   O  IDS F   5     -24.613  52.306 172.5580  0.00  0.00     0.000 OA
ATOM     91   O  IDS F   5     -24.189  57.521 173.4680  0.00  0.00     0.000 O
ATOM     93  HD  IDS F   5     -23.792  57.940 174.1140  0.00  0.00     0.000 HD
ATOM     93   O  IDS F   5     -20.595  56.233 177.1940  0.00  0.00     0.000 OA
ATOM     94   O  IDS F   5     -20.399  58.057 176.2290  0.00  0.00     0.000 OA
ATOM     95   C  IDS F   5     -21.020  57.024 176.3910  0.00  0.00     0.000 C
ENDBRANCH 78 82
ENDBRANCH 58 78
ENDBRANCH 57 61
ENDBRANCH 41 57
ENDBRANCH 40 44
ENDBRANCH 20 40
ENDBRANCH 19 23
ENDBRANCH 1 19
TORSDOF 8
ENDMDL
MODEL 2
REMARK VINA RESULT:      -8.4      1.401      2.285
FFDIST PL LJ 2322 74 36 -1
ROOT
ATOM      1  C1  IDS F   1      -9.919  47.370 172.2290  0.00  0.00     0.000 C
ATOM      2  C2  IDS F   1      -9.312  47.762 170.8710  0.00  0.00     0.000 C
ATOM      3  C3  IDS F   1      -8.173  46.817 170.4170  0.00  0.00     0.000 C
ATOM      4  C4  IDS F   1      -8.418  45.329 170.7600  0.00  0.00     0.000 C
ATOM      5  C5  IDS F   1      -9.080  45.201 172.1360  0.00  0.00     0.000 C
ATOM      6  O5  IDS F   1     -10.215  46.000 172.2010  0.00  0.00     0.000 O
ATOM      7   S  IDS F   1     -10.281  48.417 168.4360  0.00  0.00     0.000 S
ATOM      8   O  IDS F   1      -9.033  48.019 167.8580  0.00  0.00     0.000 OA
ATOM      9   O  IDS F   1     -11.388  47.907 167.6800  0.00  0.00     0.000 OA
ATOM     10   O  IDS F   1     -10.367  49.837 168.6860  0.00  0.00     0.000 OA
ATOM     11   O  IDS F   1     -10.306  47.728 169.8670  0.00  0.00     0.000 O
ATOM     12   O  IDS F   1      -6.959  47.229 171.0400  0.00  0.00     0.000 O
ATOM     14  HD  IDS F   1      -6.297  46.732 171.2940  0.00  0.00     0.000 HD
ATOM     14   O  IDS F   1      -9.274  44.806 169.7730  0.00  0.00     0.000 O
ATOM     16  HD  IDS F   1      -8.611  44.310 170.0270  0.00  0.00     0.000 HD
ATOM     16   O  IDS F   1     -10.485  43.581 173.1690  0.00  0.00     0.000 OA
ATOM     17   O  IDS F   1      -8.672  42.857 172.4160  0.00  0.00     0.000 OA
ATOM     18   C  IDS F   1      -9.428  43.799 172.5930  0.00  0.00     0.000 C
ENDROOT
BRANCH 1 19
ATOM     19  O4  SGN F   2     -11.107  48.063 172.4080  0.00  0.00     0.000 O
BRANCH 19 23
ATOM     20  C1  SGN F   2     -14.732  47.944 174.4660  0.00  0.00     0.000 C
ATOM     21  C2  SGN F   2     -13.494  47.680 175.3090  0.00  0.00     0.000 C
ATOM     22  C3  SGN F   2     -12.242  48.270 174.6440  0.00  0.00     0.000 C
ATOM     23  C4  SGN F   2     -12.164  47.613 173.2280  0.00  0.00     0.000 C
ATOM     24  C5  SGN F   2     -13.427  47.979 172.5220  0.00  0.00     0.000 C
ATOM     25  O5  SGN F   2     -14.526  47.433 173.1780  0.00  0.00     0.000 O
ATOM     26   N  SGN F   2     -13.753  48.132 176.6970  0.00  0.00     0.000 N
ATOM     28  HD  SGN F   2     -13.314  48.587 177.2890  0.00  0.00     0.000 HD
ATOM     28   S  SGN F   2     -14.586  47.089 177.7090  0.00  0.00     0.000 S
ATOM     29   O  SGN F   2     -15.766  46.646 177.0010  0.00  0.00     0.000 OA
ATOM     30   O  SGN F   2     -13.661  46.009 177.9670  0.00  0.00     0.000 OA
ATOM     31   O  SGN F   2     -14.879  47.812 178.8930  0.00  0.00     0.000 OA
ATOM     32   O  SGN F   2     -11.109  47.913 175.4260  0.00  0.00     0.000 O
ATOM     34  HD  SGN F   2     -10.670  48.369 176.0180  0.00  0.00     0.000 HD
ATOM     34   C  SGN F   2     -13.469  47.461 171.1240  0.00  0.00     0.000 C
ATOM     35   O  SGN F   2     -13.254  46.095 171.2350  0.00  0.00     0.000 O
ATOM     36   S  SGN F   2     -13.377  45.052 170.1290  0.00  0.00     0.000 S
ATOM     37   O  SGN F   2     -12.103  44.378 170.1160  0.00  0.00     0.000 OA
ATOM     38   O  SGN F   2     -14.490  44.224 170.5400  0.00  0.00     0.000 OA
ATOM     39   O  SGN F   2     -13.648  45.771 168.8910  0.00  0.00     0.000 OA
BRANCH 20 40
ATOM     40  O4  IDS F   3     -15.033  49.312 174.4060  0.00  0.00     0.000 O
BRANCH 40 44
ATOM     41  C1  IDS F   3     -16.481  52.477 174.6860  0.00  0.00     0.000 C
ATOM     42  C2  IDS F   3     -16.455  51.552 175.8760  0.00  0.00     0.000 C
ATOM     43  C3  IDS F   3     -16.988  50.108 175.5370  0.00  0.00     0.000 C
ATOM     44  C4  IDS F   3     -16.416  49.590 174.2310  0.00  0.00     0.000 C
ATOM     45  C5  IDS F   3     -16.602  50.652 173.1470  0.00  0.00     0.000 C
ATOM     46  O5  IDS F   3     -15.940  51.840 173.5180  0.00  0.00     0.000 O
ATOM     47   O  IDS F   3     -14.923  50.744 178.6110  0.00  0.00     0.000 OA
ATOM     48   O  IDS F   3     -13.224  52.118 177.7040  0.00  0.00     0.000 OA
ATOM     49   O  IDS F   3     -15.433  52.981 178.1250  0.00  0.00     0.000 OA
ATOM     50   O  IDS F   3     -15.114  51.486 176.3730  0.00  0.00     0.000 O
ATOM     51   S  IDS F   3     -14.636  51.860 177.7840  0.00  0.00     0.000 S
ATOM     52   O  IDS F   3     -18.404  50.146 175.3860  0.00  0.00     0.000 O
ATOM     54  HD  IDS F   3     -17.857  50.619 175.8620  0.00  0.00     0.000 HD
ATOM     54   C  IDS F   3     -16.187  50.222 171.7360  0.00  0.00     0.000 C
ATOM     55   O  IDS F   3     -15.094  50.536 171.2710  0.00  0.00     0.000 OA
ATOM     56   O  IDS F   3     -16.936  49.537 171.0270  0.00  0.00     0.000 OA
BRANCH 41 57
ATOM     57  O4  SGN F   4     -17.792  52.920 174.4900  0.00  0.00     0.000 O
BRANCH 57 61
ATOM     58  C1  SGN F   4     -19.402  56.344 172.9310  0.00  0.00     0.000 C
ATOM     59  C2  SGN F   4     -19.426  55.107 172.0200  0.00  0.00     0.000 C
ATOM     60  C3  SGN F   4     -19.189  53.831 172.8100  0.00  0.00     0.000 C
ATOM     61  C4  SGN F   4     -17.905  53.998 173.6200  0.00  0.00     0.000 C
ATOM     62  C5  SGN F   4     -17.965  55.297 174.4470  0.00  0.00     0.000 C
ATOM     63  O5  SGN F   4     -18.187  56.400 173.6240  0.00  0.00     0.000 O
ATOM     64   N  SGN F   4     -20.667  55.044 171.2720  0.00  0.00     0.000 N
ATOM     66  HD  SGN F   4     -20.003  55.544 171.5140  0.00  0.00     0.000 HD
ATOM     66   S  SGN F   4     -20.739  55.858 169.8610  0.00  0.00     0.000 S
ATOM     67   O  SGN F   4     -20.713  57.266 170.2080  0.00  0.00     0.000 OA
ATOM     68   O  SGN F   4     -19.585  55.472 169.0510  0.00  0.00     0.000 OA
ATOM     69   O  SGN F   4     -22.010  55.447 169.3070  0.00  0.00     0.000 OA
ATOM     70   O  SGN F   4     -19.007  52.742 171.9170  0.00  0.00     0.000 O
ATOM     72  HD  SGN F   4     -18.342  53.241 172.1590  0.00  0.00     0.000 HD
ATOM     72   C  SGN F   4     -16.693  55.622 175.1870  0.00  0.00     0.000 C
ATOM     73   O  SGN F   4     -15.670  55.749 174.2280  0.00  0.00     0.000 O
ATOM     74   S  SGN F   4     -14.421  56.669 174.3590  0.00  0.00     0.000 S
ATOM     75   O  SGN F   4     -14.047  56.728 175.7330  0.00  0.00     0.000 OA
ATOM     76   O  SGN F   4     -13.367  56.083 173.5320  0.00  0.00     0.000 OA
ATOM     77   O  SGN F   4     -14.886  57.927 173.9230  0.00  0.00     0.000 OA
BRANCH 58 78
ATOM     78  O4  IDS F   5     -20.498  56.336 173.8130  0.00  0.00     0.000 O
BRANCH 78 82
ATOM     79  C1  IDS F   5     -23.025  57.120 176.0830  0.00  0.00     0.000 C
ATOM     80  C2  IDS F   5     -23.348  56.503 174.7300  0.00  0.00     0.000 C
ATOM     81  C3  IDS F   5     -22.697  57.275 173.5800  0.00  0.00     0.000 C
ATOM     82  C4  IDS F   5     -21.205  57.542 173.8720  0.00  0.00     0.000 C
ATOM     83  C5  IDS F   5     -21.052  58.154 175.2650  0.00  0.00     0.000 C
ATOM     84  O5  IDS F   5     -21.644  57.321 176.2410  0.00  0.00     0.000 O
ATOM     85   O  IDS F   5     -23.761  58.311 176.2070  0.00  0.00     0.000 OA
ATOM     86   O  IDS F   5     -22.830  55.202 174.7090  0.00  0.00     0.000 O
ATOM     87   S  IDS F   5     -23.204  54.034 173.7400  0.00  0.00     0.000 S
ATOM     88   O  IDS F   5     -23.579  54.625 172.4820  0.00  0.00     0.000 OA
ATOM     89   O  IDS F   5     -22.020  53.214 173.6240  0.00  0.00     0.000 OA
ATOM     90   O  IDS F   5     -24.313  53.370 174.3720  0.00  0.00     0.000 OA
ATOM     91   O  IDS F   5     -23.367  58.513 173.4470  0.00  0.00     0.000 O
ATOM     93  HD  IDS F   5     -22.801  59.049 173.8250  0.00  0.00     0.000 HD
ATOM     93   O  IDS F   5     -19.063  57.928 176.5450  0.00  0.00     0.000 OA
ATOM     94   O  IDS F   5     -18.996  59.338 175.0260  0.00  0.00     0.000 OA
ATOM     95   C  IDS F   5     -19.621  58.493 175.6380  0.00  0.00     0.000 C
ENDBRANCH 78 82
ENDBRANCH 58 78
ENDBRANCH 57 61
ENDBRANCH 41 57
ENDBRANCH 40 44
ENDBRANCH 20 40
ENDBRANCH 19 23
ENDBRANCH 1 19
TORSDOF 8
ENDMDL
MODEL 3
REMARK VINA RESULT:      -7.6      2.614      5.686
FFDIST PL LJ 2322 74 36 -1
ROOT
ATOM      1  C1  IDS F   1      -7.945  46.396 172.5660  0.00  0.00     0.000 C
ATOM      2  C2  IDS F   1      -6.983  47.570 172.8130  0.00  0.00     0.000 C
ATOM      3  C3  IDS F   1      -5.511  47.232 172.4710  0.00  0.00     0.000 C
ATOM      4  C4  IDS F   1      -5.346  46.340 171.2180  0.00  0.00     0.000 C
ATOM      5  C5  IDS F   1      -6.454  45.283 171.1680  0.00  0.00     0.000 C
ATOM      6  O5  IDS F   1      -7.701  45.886 171.2830  0.00  0.00     0.000 O
ATOM      7   S  IDS F   1      -6.942  50.200 172.1970  0.00  0.00     0.000 S
ATOM      8   O  IDS F   1      -5.516  50.184 172.3250  0.00  0.00     0.000 OA
ATOM      9   O  IDS F   1      -7.348  50.913 171.0210  0.00  0.00     0.000 OA
ATOM     10   O  IDS F   1      -7.618  50.643 173.3940  0.00  0.00     0.000 OA
ATOM     11   O  IDS F   1      -7.352  48.676 172.0150  0.00  0.00     0.000 O
ATOM     12   O  IDS F   1      -4.924  46.561 173.5820  0.00  0.00     0.000 O
ATOM     14  HD  IDS F   1      -4.314  45.947 173.5710  0.00  0.00     0.000 HD
ATOM     14   O  IDS F   1      -5.438  47.176 170.0910  0.00  0.00     0.000 O
ATOM     16  HD  IDS F   1      -4.829  46.561 170.0800  0.00  0.00     0.000 HD
ATOM     16   O  IDS F   1      -7.507  44.050 169.4240  0.00  0.00     0.000 OA
ATOM     17   O  IDS F   1      -5.424  43.888 169.5150  0.00  0.00     0.000 OA
ATOM     18   C  IDS F   1      -6.455  44.359 169.9670  0.00  0.00     0.000 C
ENDROOT
BRANCH 1 19
ATOM     19  O4  SGN F   2      -9.249  46.868 172.6000  0.00  0.00     0.000 O
BRANCH 19 23
ATOM     20  C1  SGN F   2     -13.097  46.078 171.1990  0.00  0.00     0.000 C
ATOM     21  C2  SGN F   2     -12.383  44.901 171.8440  0.00  0.00     0.000 C
ATOM     22  C3  SGN F   2     -11.272  45.384 172.7880  0.00  0.00     0.000 C
ATOM     23  C4  SGN F   2     -10.323  46.263 171.9120  0.00  0.00     0.000 C
ATOM     24  C5  SGN F   2     -11.157  47.378 171.3730  0.00  0.00     0.000 C
ATOM     25  O5  SGN F   2     -12.155  46.880 170.5420  0.00  0.00     0.000 O
ATOM     26   N  SGN F   2     -13.392  44.002 172.4540  0.00  0.00     0.000 N
ATOM     28  HD  SGN F   2     -13.471  43.586 173.2090  0.00  0.00     0.000 HD
ATOM     28   S  SGN F   2     -14.160  42.903 171.4480  0.00  0.00     0.000 S
ATOM     29   O  SGN F   2     -14.635  43.631 170.2920  0.00  0.00     0.000 OA
ATOM     30   O  SGN F   2     -13.138  41.938 171.1110  0.00  0.00     0.000 OA
ATOM     31   O  SGN F   2     -15.200  42.311 172.2070  0.00  0.00     0.000 OA
ATOM     32   O  SGN F   2     -10.582  44.245 173.2880  0.00  0.00     0.000 O
ATOM     34  HD  SGN F   2     -10.661  43.829 174.0430  0.00  0.00     0.000 HD
ATOM     34   C  SGN F   2     -10.364  48.339 170.5530  0.00  0.00     0.000 C
ATOM     35   O  SGN F   2      -9.749  47.566 169.5790  0.00  0.00     0.000 O
ATOM     36   S  SGN F   2      -8.967  48.062 168.3680  0.00  0.00     0.000 S
ATOM     37   O  SGN F   2      -7.684  47.414 168.4660  0.00  0.00     0.000 OA
ATOM     38   O  SGN F   2      -9.763  47.649 167.2330  0.00  0.00     0.000 OA
ATOM     39   O  SGN F   2      -8.877  49.513 168.4830  0.00  0.00     0.000 OA
BRANCH 20 40
ATOM     40  O4  IDS F   3     -13.805  46.834 172.1440  0.00  0.00     0.000 O
BRANCH 40 44
ATOM     41  C1  IDS F   3     -16.524  48.834 173.0390  0.00  0.00     0.000 C
ATOM     42  C2  IDS F   3     -16.515  48.126 171.7070  0.00  0.00     0.000 C
ATOM     43  C3  IDS F   3     -15.177  48.356 170.9050  0.00  0.00     0.000 C
ATOM     44  C4  IDS F   3     -13.956  48.203 171.7920  0.00  0.00     0.000 C
ATOM     45  C5  IDS F   3     -14.143  49.048 173.0520  0.00  0.00     0.000 C
ATOM     46  O5  IDS F   3     -15.294  48.626 173.7490  0.00  0.00     0.000 O
ATOM     47   O  IDS F   3     -17.498  45.529 170.0440  0.00  0.00     0.000 OA
ATOM     48   O  IDS F   3     -17.991  44.710 172.2090  0.00  0.00     0.000 OA
ATOM     49   O  IDS F   3     -18.989  46.743 171.3880  0.00  0.00     0.000 OA
ATOM     50   O  IDS F   3     -16.729  46.729 171.9330  0.00  0.00     0.000 O
ATOM     51   S  IDS F   3     -17.872  45.871 171.3690  0.00  0.00     0.000 S
ATOM     52   O  IDS F   3     -15.152  49.683 170.3890  0.00  0.00     0.000 O
ATOM     54  HD  IDS F   3     -15.803  49.140 170.5660  0.00  0.00     0.000 HD
ATOM     54   C  IDS F   3     -12.932  49.096 173.9900  0.00  0.00     0.000 C
ATOM     55   O  IDS F   3     -12.870  48.378 174.9850  0.00  0.00     0.000 OA
ATOM     56   O  IDS F   3     -11.977  49.852 173.7670  0.00  0.00     0.000 OA
BRANCH 41 57
ATOM     57  O4  SGN F   4     -16.791  50.190 172.8240  0.00  0.00     0.000 O
BRANCH 57 61
ATOM     58  C1  SGN F   4     -18.223  53.247 175.1380  0.00  0.00     0.000 C
ATOM     59  C2  SGN F   4     -16.694  53.137 175.0280  0.00  0.00     0.000 C
ATOM     60  C3  SGN F   4     -16.283  52.256 173.8610  0.00  0.00     0.000 C
ATOM     61  C4  SGN F   4     -17.008  50.918 173.9880  0.00  0.00     0.000 C
ATOM     62  C5  SGN F   4     -18.522  51.149 174.1510  0.00  0.00     0.000 C
ATOM     63  O5  SGN F   4     -18.785  51.969 175.2490  0.00  0.00     0.000 O
ATOM     64   N  SGN F   4     -16.090  54.452 174.9390  0.00  0.00     0.000 N
ATOM     66  HD  SGN F   4     -16.655  53.952 175.3640  0.00  0.00     0.000 HD
ATOM     66   S  SGN F   4     -15.752  55.223 176.3350  0.00  0.00     0.000 S
ATOM     67   O  SGN F   4     -17.032  55.562 176.9270  0.00  0.00     0.000 OA
ATOM     68   O  SGN F   4     -14.980  54.316 177.1830  0.00  0.00     0.000 OA
ATOM     69   O  SGN F   4     -15.017  56.389 175.9000  0.00  0.00     0.000 OA
ATOM     70   O  SGN F   4     -14.886  52.006 173.9190  0.00  0.00     0.000 O
ATOM     72  HD  SGN F   4     -15.450  51.506 174.3440  0.00  0.00     0.000 HD
ATOM     72   C  SGN F   4     -19.318  49.896 174.4110  0.00  0.00     0.000 C
ATOM     73   O  SGN F   4     -18.822  49.323 175.5990  0.00  0.00     0.000 O
ATOM     74   S  SGN F   4     -19.653  48.476 176.6070  0.00  0.00     0.000 S
ATOM     75   O  SGN F   4     -20.631  47.739 175.8770  0.00  0.00     0.000 OA
ATOM     76   O  SGN F   4     -18.717  47.597 177.3050  0.00  0.00     0.000 OA
ATOM     77   O  SGN F   4     -20.276  49.445 177.4210  0.00  0.00     0.000 OA
BRANCH 58 78
ATOM     78  O4  IDS F   5     -18.753  53.948 174.0390  0.00  0.00     0.000 O
BRANCH 78 82
ATOM     79  C1  IDS F   5     -20.633  55.826 171.7820  0.00  0.00     0.000 C
ATOM     80  C2  IDS F   5     -19.321  56.355 172.3440  0.00  0.00     0.000 C
ATOM     81  C3  IDS F   5     -19.284  56.285 173.8720  0.00  0.00     0.000 C
ATOM     82  C4  IDS F   5     -19.729  54.893 174.3700  0.00  0.00     0.000 C
ATOM     83  C5  IDS F   5     -21.055  54.508 173.7100  0.00  0.00     0.000 C
ATOM     84  O5  IDS F   5     -20.941  54.558 172.3030  0.00  0.00     0.000 O
ATOM     85   O  IDS F   5     -21.635  56.775 172.0450  0.00  0.00     0.000 OA
ATOM     86   O  IDS F   5     -18.283  55.549 171.8610  0.00  0.00     0.000 O
ATOM     87   S  IDS F   5     -16.754  55.872 171.8190  0.00  0.00     0.000 S
ATOM     88   O  IDS F   5     -16.468  56.733 172.9360  0.00  0.00     0.000 OA
ATOM     89   O  IDS F   5     -16.072  54.603 171.9210  0.00  0.00     0.000 OA
ATOM     90   O  IDS F   5     -16.552  56.542 170.5610  0.00  0.00     0.000 OA
ATOM     91   O  IDS F   5     -20.174  57.260 174.3790  0.00  0.00     0.000 O
ATOM     93  HD  IDS F   5     -20.851  56.767 174.5990  0.00  0.00     0.000 HD
ATOM     93   O  IDS F   5     -21.710  52.247 173.3920  0.00  0.00     0.000 OA
ATOM     94   O  IDS F   5     -21.944  52.986 175.3150  0.00  0.00     0.000 OA
ATOM     95   C  IDS F   5     -21.603  53.167 174.1620  0.00  0.00     0.000 C
ENDBRANCH 78 82
ENDBRANCH 58 78
ENDBRANCH 57 61
ENDBRANCH 41 57
ENDBRANCH 40 44
ENDBRANCH 20 40
ENDBRANCH 19 23
ENDBRANCH 1 19
TORSDOF 8
ENDMDL
MODEL 4
REMARK VINA RESULT:      -7.6      1.364      2.256
FFDIST PL LJ 2322 74 36 -1
ROOT
ATOM      1  C1  IDS F   1      -8.836  48.249 174.5330  0.00  0.00     0.000 C
ATOM      2  C2  IDS F   1      -7.752  48.893 173.6520  0.00  0.00     0.000 C
ATOM      3  C3  IDS F   1      -6.385  48.172 173.7440  0.00  0.00     0.000 C
ATOM      4  C4  IDS F   1      -6.493  46.632 173.8460  0.00  0.00     0.000 C
ATOM      5  C5  IDS F   1      -7.680  46.239 174.7320  0.00  0.00     0.000 C
ATOM      6  O5  IDS F   1      -8.838  46.868 174.2920  0.00  0.00     0.000 O
ATOM      7   S  IDS F   1      -7.589  49.731 171.0880  0.00  0.00     0.000 S
ATOM      8   O  IDS F   1      -6.167  49.578 171.1530  0.00  0.00     0.000 OA
ATOM      9   O  IDS F   1      -8.113  49.186 169.8700  0.00  0.00     0.000 OA
ATOM     10   O  IDS F   1      -8.030  51.082 171.3450  0.00  0.00     0.000 OA
ATOM     11   O  IDS F   1      -8.148  48.862 172.2950  0.00  0.00     0.000 O
ATOM     12   O  IDS F   1      -5.689  48.652 174.8910  0.00  0.00     0.000 O
ATOM     14  HD  IDS F   1      -5.142  48.216 175.4020  0.00  0.00     0.000 HD
ATOM     14   O  IDS F   1      -6.690  46.137 172.5440  0.00  0.00     0.000 O
ATOM     16  HD  IDS F   1      -6.143  45.702 173.0550  0.00  0.00     0.000 HD
ATOM     16   O  IDS F   1      -9.092  44.328 174.8800  0.00  0.00     0.000 OA
ATOM     17   O  IDS F   1      -7.040  43.952 175.0430  0.00  0.00     0.000 OA
ATOM     18   C  IDS F   1      -7.945  44.756 174.8900  0.00  0.00     0.000 C
ENDROOT
BRANCH 1 19
ATOM     19  O4  SGN F   2     -10.074  48.752 174.1630  0.00  0.00     0.000 O
BRANCH 19 23
ATOM     20  C1  SGN F   2     -14.154  47.894 174.2520  0.00  0.00     0.000 C
ATOM     21  C2  SGN F   2     -13.403  47.629 175.5470  0.00  0.00     0.000 C
ATOM     22  C3  SGN F   2     -12.111  48.456 175.6100  0.00  0.00     0.000 C
ATOM     23  C4  SGN F   2     -11.290  48.058 174.3410  0.00  0.00     0.000 C
ATOM     24  C5  SGN F   2     -12.143  48.397 173.1640  0.00  0.00     0.000 C
ATOM     25  O5  SGN F   2     -13.305  47.632 173.1690  0.00  0.00     0.000 O
ATOM     26   N  SGN F   2     -14.333  47.811 176.6870  0.00  0.00     0.000 N
ATOM     28  HD  SGN F   2     -14.295  48.205 177.4570  0.00  0.00     0.000 HD
ATOM     28   S  SGN F   2     -15.337  46.528 177.0810  0.00  0.00     0.000 S
ATOM     29   O  SGN F   2     -15.974  46.085 175.8610  0.00  0.00     0.000 OA
ATOM     30   O  SGN F   2     -14.453  45.528 177.6360  0.00  0.00     0.000 OA
ATOM     31   O  SGN F   2     -16.252  47.007 178.0520  0.00  0.00     0.000 OA
ATOM     32   O  SGN F   2     -11.408  48.099 176.7940  0.00  0.00     0.000 O
ATOM     34  HD  SGN F   2     -11.370  48.494 177.5640  0.00  0.00     0.000 HD
ATOM     34   C  SGN F   2     -11.460  48.120 171.8660  0.00  0.00     0.000 C
ATOM     35   O  SGN F   2     -11.083  46.786 171.9310  0.00  0.00     0.000 O
ATOM     36   S  SGN F   2     -10.511  45.936 170.8020  0.00  0.00     0.000 S
ATOM     37   O  SGN F   2      -9.272  45.417 171.3230  0.00  0.00     0.000 OA
ATOM     38   O  SGN F   2     -11.526  44.935 170.5570  0.00  0.00     0.000 OA
ATOM     39   O  SGN F   2     -10.316  46.819 169.6590  0.00  0.00     0.000 OA
BRANCH 20 40
ATOM     40  O4  IDS F   3     -14.630  49.212 174.1910  0.00  0.00     0.000 O
BRANCH 40 44
ATOM     41  C1  IDS F   3     -16.536  52.102 174.6470  0.00  0.00     0.000 C
ATOM     42  C2  IDS F   3     -16.440  51.080 175.7520  0.00  0.00     0.000 C
ATOM     43  C3  IDS F   3     -16.739  49.614 175.2520  0.00  0.00     0.000 C
ATOM     44  C4  IDS F   3     -16.027  49.309 173.9470  0.00  0.00     0.000 C
ATOM     45  C5  IDS F   3     -16.306  50.434 172.9510  0.00  0.00     0.000 C
ATOM     46  O5  IDS F   3     -15.846  51.662 173.4680  0.00  0.00     0.000 O
ATOM     47   O  IDS F   3     -14.958  50.234 178.5030  0.00  0.00     0.000 OA
ATOM     48   O  IDS F   3     -13.430  51.913 177.8360  0.00  0.00     0.000 OA
ATOM     49   O  IDS F   3     -15.761  52.415 178.1800  0.00  0.00     0.000 OA
ATOM     50   O  IDS F   3     -15.133  51.154 176.3300  0.00  0.00     0.000 O
ATOM     51   S  IDS F   3     -14.792  51.454 177.7980  0.00  0.00     0.000 S
ATOM     52   O  IDS F   3     -18.134  49.468 175.0100  0.00  0.00     0.000 O
ATOM     54  HD  IDS F   3     -17.689  49.966 175.5610  0.00  0.00     0.000 HD
ATOM     54   C  IDS F   3     -15.758  50.204 171.5390  0.00  0.00     0.000 C
ATOM     55   O  IDS F   3     -14.698  50.711 171.1780  0.00  0.00     0.000 OA
ATOM     56   O  IDS F   3     -16.359  49.492 170.7240  0.00  0.00     0.000 OA
BRANCH 41 57
ATOM     57  O4  SGN F   4     -17.885  52.374 174.4040  0.00  0.00     0.000 O
BRANCH 57 61
ATOM     58  C1  SGN F   4     -19.990  55.675 173.2110  0.00  0.00     0.000 C
ATOM     59  C2  SGN F   4     -19.595  54.685 172.1040  0.00  0.00     0.000 C
ATOM     60  C3  SGN F   4     -19.191  53.339 172.6800  0.00  0.00     0.000 C
ATOM     61  C4  SGN F   4     -18.113  53.572 173.7370  0.00  0.00     0.000 C
ATOM     62  C5  SGN F   4     -18.589  54.623 174.7590  0.00  0.00     0.000 C
ATOM     63  O5  SGN F   4     -18.935  55.814 174.1210  0.00  0.00     0.000 O
ATOM     64   N  SGN F   4     -20.665  54.546 171.1340  0.00  0.00     0.000 N
ATOM     66  HD  SGN F   4     -20.175  55.101 171.5850  0.00  0.00     0.000 HD
ATOM     66   S  SGN F   4     -20.713  55.617 169.9060  0.00  0.00     0.000 S
ATOM     67   O  SGN F   4     -21.061  56.894 170.5010  0.00  0.00     0.000 OA
ATOM     68   O  SGN F   4     -19.395  55.649 169.2750  0.00  0.00     0.000 OA
ATOM     69   O  SGN F   4     -21.760  55.098 169.0550  0.00  0.00     0.000 OA
ATOM     70   O  SGN F   4     -18.634  52.527 171.6570  0.00  0.00     0.000 O
ATOM     72  HD  SGN F   4     -18.145  53.082 172.1070  0.00  0.00     0.000 HD
ATOM     72   C  SGN F   4     -17.549  55.020 175.7740  0.00  0.00     0.000 C
ATOM     73   O  SGN F   4     -16.452  55.550 175.0660  0.00  0.00     0.000 O
ATOM     74   S  SGN F   4     -15.481  56.643 175.5970  0.00  0.00     0.000 S
ATOM     75   O  SGN F   4     -15.337  56.474 177.0050  0.00  0.00     0.000 OA
ATOM     76   O  SGN F   4     -14.211  56.468 174.8940  0.00  0.00     0.000 OA
ATOM     77   O  SGN F   4     -16.153  57.851 175.3140  0.00  0.00     0.000 OA
BRANCH 58 78
ATOM     78  O4  IDS F   5     -21.172  55.262 173.8520  0.00  0.00     0.000 O
BRANCH 78 82
ATOM     79  C1  IDS F   5     -24.147  54.984 175.6470  0.00  0.00     0.000 C
ATOM     80  C2  IDS F   5     -24.107  54.725 174.1470  0.00  0.00     0.000 C
ATOM     81  C3  IDS F   5     -23.448  55.877 173.3860  0.00  0.00     0.000 C
ATOM     82  C4  IDS F   5     -22.112  56.279 174.0480  0.00  0.00     0.000 C
ATOM     83  C5  IDS F   5     -22.322  56.497 175.5470  0.00  0.00     0.000 C
ATOM     84  O5  IDS F   5     -22.883  55.344 176.1410  0.00  0.00     0.000 O
ATOM     85   O  IDS F   5     -25.124  55.965 175.8940  0.00  0.00     0.000 OA
ATOM     86   O  IDS F   5     -23.336  53.577 173.9240  0.00  0.00     0.000 O
ATOM     87   S  IDS F   5     -23.295  52.681 172.6430  0.00  0.00     0.000 S
ATOM     88   O  IDS F   5     -23.569  53.533 171.5160  0.00  0.00     0.000 OA
ATOM     89   O  IDS F   5     -21.964  52.119 172.5890  0.00  0.00     0.000 OA
ATOM     90   O  IDS F   5     -24.332  51.704 172.8420  0.00  0.00     0.000 OA
ATOM     91   O  IDS F   5     -24.326  56.984 173.4160  0.00  0.00     0.000 O
ATOM     93  HD  IDS F   5     -23.954  57.474 174.0260  0.00  0.00     0.000 HD
ATOM     93   O  IDS F   5     -20.570  56.235 177.1300  0.00  0.00     0.000 OA
ATOM     94   O  IDS F   5     -20.544  58.003 176.0500  0.00  0.00     0.000 OA
ATOM     95   C  IDS F   5     -21.074  56.935 176.2900  0.00  0.00     0.000 C
ENDBRANCH 78 82
ENDBRANCH 58 78
ENDBRANCH 57 61
ENDBRANCH 41 57
ENDBRANCH 40 44
ENDBRANCH 20 40
ENDBRANCH 19 23
ENDBRANCH 1 19
TORSDOF 8
ENDMDL
MODEL 5
REMARK VINA RESULT:      -7.4      3.584     11.961
FFDIST PL LJ 2322 74 36 -1
ROOT
ATOM      1  C1  IDS F   1     -22.378  48.272 172.9530  0.00  0.00     0.000 C
ATOM      2  C2  IDS F   1     -22.253  47.167 171.8910  0.00  0.00     0.000 C
ATOM      3  C3  IDS F   1     -22.060  45.756 172.5000  0.00  0.00     0.000 C
ATOM      4  C4  IDS F   1     -22.881  45.510 173.7870  0.00  0.00     0.000 C
ATOM      5  C5  IDS F   1     -22.903  46.774 174.6550  0.00  0.00     0.000 C
ATOM      6  O5  IDS F   1     -23.323  47.865 173.9050  0.00  0.00     0.000 O
ATOM      7   S  IDS F   1     -23.614  46.458 169.6680  0.00  0.00     0.000 S
ATOM      8   O  IDS F   1     -23.104  45.127 169.8070  0.00  0.00     0.000 OA
ATOM      9   O  IDS F   1     -25.016  46.446 169.3690  0.00  0.00     0.000 OA
ATOM     10   O  IDS F   1     -22.843  47.271 168.7560  0.00  0.00     0.000 OA
ATOM     11   O  IDS F   1     -23.422  47.121 171.0980  0.00  0.00     0.000 O
ATOM     12   O  IDS F   1     -20.679  45.573 172.8040  0.00  0.00     0.000 O
ATOM     14  HD  IDS F   1     -20.334  45.114 173.4520  0.00  0.00     0.000 HD
ATOM     14   O  IDS F   1     -24.191  45.184 173.3930  0.00  0.00     0.000 O
ATOM     16  HD  IDS F   1     -23.846  44.725 174.0420  0.00  0.00     0.000 HD
ATOM     16   O  IDS F   1     -24.398  47.654 176.2850  0.00  0.00     0.000 OA
ATOM     17   O  IDS F   1     -23.698  45.717 176.6520  0.00  0.00     0.000 OA
ATOM     18   C  IDS F   1     -23.713  46.703 175.9330  0.00  0.00     0.000 C
ENDROOT
BRANCH 1 19
ATOM     19  O4  SGN F   2     -22.847  49.428 172.3470  0.00  0.00     0.000 O
BRANCH 19 23
ATOM     20  C1  SGN F   2     -19.886  52.336 172.7530  0.00  0.00     0.000 C
ATOM     21  C2  SGN F   2     -21.038  52.435 173.7410  0.00  0.00     0.000 C
ATOM     22  C3  SGN F   2     -21.748  51.082 173.8920  0.00  0.00     0.000 C
ATOM     23  C4  SGN F   2     -22.215  50.685 172.4540  0.00  0.00     0.000 C
ATOM     24  C5  SGN F   2     -20.982  50.606 171.6170  0.00  0.00     0.000 C
ATOM     25  O5  SGN F   2     -20.372  51.854 171.5310  0.00  0.00     0.000 O
ATOM     26   N  SGN F   2     -20.540  53.038 175.0000  0.00  0.00     0.000 N
ATOM     28  HD  SGN F   2     -20.632  52.867 175.8440  0.00  0.00     0.000 HD
ATOM     28   S  SGN F   2     -20.424  54.708 175.0670  0.00  0.00     0.000 S
ATOM     29   O  SGN F   2     -19.717  55.142 173.8820  0.00  0.00     0.000 OA
ATOM     30   O  SGN F   2     -21.793  55.171 175.0930  0.00  0.00     0.000 OA
ATOM     31   O  SGN F   2     -19.748  55.025 176.2720  0.00  0.00     0.000 OA
ATOM     32   O  SGN F   2     -22.868  51.257 174.7520  0.00  0.00     0.000 O
ATOM     34  HD  SGN F   2     -22.959  51.085 175.5960  0.00  0.00     0.000 HD
ATOM     34   C  SGN F   2     -21.269  50.179 170.2160  0.00  0.00     0.000 C
ATOM     35   O  SGN F   2     -22.218  51.077 169.7500  0.00  0.00     0.000 O
ATOM     36   S  SGN F   2     -22.731  51.212 168.3200  0.00  0.00     0.000 S
ATOM     37   O  SGN F   2     -24.163  51.085 168.4290  0.00  0.00     0.000 OA
ATOM     38   O  SGN F   2     -22.275  52.519 167.8980  0.00  0.00     0.000 OA
ATOM     39   O  SGN F   2     -22.126  50.136 167.5450  0.00  0.00     0.000 OA
BRANCH 20 40
ATOM     40  O4  IDS F   3     -18.864  51.505 173.2330  0.00  0.00     0.000 O
BRANCH 40 44
ATOM     41  C1  IDS F   3     -15.639  50.482 174.0940  0.00  0.00     0.000 C
ATOM     42  C2  IDS F   3     -15.952  51.950 173.9590  0.00  0.00     0.000 C
ATOM     43  C3  IDS F   3     -16.691  52.293 172.6080  0.00  0.00     0.000 C
ATOM     44  C4  IDS F   3     -17.803  51.305 172.3090  0.00  0.00     0.000 C
ATOM     45  C5  IDS F   3     -17.258  49.883 172.4400  0.00  0.00     0.000 C
ATOM     46  O5  IDS F   3     -16.772  49.672 173.7470  0.00  0.00     0.000 O
ATOM     47   O  IDS F   3     -16.745  54.678 175.5110  0.00  0.00     0.000 OA
ATOM     48   O  IDS F   3     -17.188  53.177 177.2860  0.00  0.00     0.000 OA
ATOM     49   O  IDS F   3     -15.002  53.308 176.2810  0.00  0.00     0.000 OA
ATOM     50   O  IDS F   3     -16.748  52.352 175.0790  0.00  0.00     0.000 O
ATOM     51   S  IDS F   3     -16.403  53.438 176.1090  0.00  0.00     0.000 S
ATOM     52   O  IDS F   3     -15.767  52.219 171.5270  0.00  0.00     0.000 O
ATOM     54  HD  IDS F   3     -15.667  52.415 172.3650  0.00  0.00     0.000 HD
ATOM     54   C  IDS F   3     -18.234  48.772 172.0420  0.00  0.00     0.000 C
ATOM     55   O  IDS F   3     -18.878  48.157 172.8890  0.00  0.00     0.000 OA
ATOM     56   O  IDS F   3     -18.412  48.468 170.8550  0.00  0.00     0.000 OA
BRANCH 41 57
ATOM     57  O4  SGN F   4     -14.517  50.189 173.3130  0.00  0.00     0.000 O
BRANCH 57 61
ATOM     58  C1  SGN F   4     -11.539  47.386 173.4810  0.00  0.00     0.000 C
ATOM     59  C2  SGN F   4     -12.735  47.053 172.5750  0.00  0.00     0.000 C
ATOM     60  C3  SGN F   4     -13.563  48.289 172.2710  0.00  0.00     0.000 C
ATOM     61  C4  SGN F   4     -13.935  48.958 173.5930  0.00  0.00     0.000 C
ATOM     62  C5  SGN F   4     -12.671  49.191 174.4430  0.00  0.00     0.000 C
ATOM     63  O5  SGN F   4     -11.990  47.993 174.6590  0.00  0.00     0.000 O
ATOM     64   N  SGN F   4     -12.292  46.399 171.3590  0.00  0.00     0.000 N
ATOM     66  HD  SGN F   4     -12.236  46.416 172.2230  0.00  0.00     0.000 HD
ATOM     66   S  SGN F   4     -12.104  44.780 171.3990  0.00  0.00     0.000 S
ATOM     67   O  SGN F   4     -10.966  44.529 172.2620  0.00  0.00     0.000 OA
ATOM     68   O  SGN F   4     -13.333  44.190 171.9270  0.00  0.00     0.000 OA
ATOM     69   O  SGN F   4     -11.838  44.444 170.0180  0.00  0.00     0.000 OA
ATOM     70   O  SGN F   4     -14.766  47.912 171.6160  0.00  0.00     0.000 O
ATOM     72  HD  SGN F   4     -14.710  47.928 172.4800  0.00  0.00     0.000 HD
ATOM     72   C  SGN F   4     -12.941  49.732 175.8230  0.00  0.00     0.000 C
ATOM     73   O  SGN F   4     -13.761  48.798 176.4870  0.00  0.00     0.000 O
ATOM     74   S  SGN F   4     -13.776  48.541 178.0220  0.00  0.00     0.000 S
ATOM     75   O  SGN F   4     -13.507  49.773 178.6870  0.00  0.00     0.000 OA
ATOM     76   O  SGN F   4     -15.098  48.017 178.3580  0.00  0.00     0.000 OA
ATOM     77   O  SGN F   4     -12.712  47.636 178.2180  0.00  0.00     0.000 OA
BRANCH 58 78
ATOM     78  O4  IDS F   5     -10.613  48.201 172.8040  0.00  0.00     0.000 O
BRANCH 78 82
ATOM     79  C1  IDS F   5      -7.839  49.913 171.5690  0.00  0.00     0.000 C
ATOM     80  C2  IDS F   5      -8.459  48.759 170.7940  0.00  0.00     0.000 C
ATOM     81  C3  IDS F   5      -8.616  47.508 171.6610  0.00  0.00     0.000 C
ATOM     82  C4  IDS F   5      -9.274  47.856 173.0140  0.00  0.00     0.000 C
ATOM     83  C5  IDS F   5      -8.539  49.033 173.6580  0.00  0.00     0.000 C
ATOM     84  O5  IDS F   5      -8.512  50.140 172.7800  0.00  0.00     0.000 O
ATOM     85   O  IDS F   5      -6.474  49.631 171.7540  0.00  0.00     0.000 OA
ATOM     86   O  IDS F   5      -9.739  49.149 170.3820  0.00  0.00     0.000 O
ATOM     87   S  IDS F   5     -10.626  48.509 169.2640  0.00  0.00     0.000 S
ATOM     88   O  IDS F   5     -10.304  47.107 169.2130  0.00  0.00     0.000 OA
ATOM     89   O  IDS F   5     -11.997  48.739 169.6580  0.00  0.00     0.000 OA
ATOM     90   O  IDS F   5     -10.245  49.191 168.0560  0.00  0.00     0.000 OA
ATOM     91   O  IDS F   5      -7.330  46.974 171.9010  0.00  0.00     0.000 O
ATOM     93  HD  IDS F   5      -7.188  47.241 172.7120  0.00  0.00     0.000 HD
ATOM     93   O  IDS F   5      -9.596  50.510 175.1900  0.00  0.00     0.000 OA
ATOM     94   O  IDS F   5      -9.024  48.674 175.9650  0.00  0.00     0.000 OA
ATOM     95   C  IDS F   5      -9.084  49.433 175.0170  0.00  0.00     0.000 C
ENDBRANCH 78 82
ENDBRANCH 58 78
ENDBRANCH 57 61
ENDBRANCH 41 57
ENDBRANCH 40 44
ENDBRANCH 20 40
ENDBRANCH 19 23
ENDBRANCH 1 19
TORSDOF 8
ENDMDL
MODEL 6
REMARK VINA RESULT:      -7.0      3.303      7.299
FFDIST PL LJ 2322 74 36 -1
ROOT
ATOM      1  C1  IDS F   1     -16.101  43.753 174.2300  0.00  0.00     0.000 C
ATOM      2  C2  IDS F   1     -16.091  43.629 175.7620  0.00  0.00     0.000 C
ATOM      3  C3  IDS F   1     -17.500  43.407 176.3650  0.00  0.00     0.000 C
ATOM      4  C4  IDS F   1     -18.408  42.487 175.5150  0.00  0.00     0.000 C
ATOM      5  C5  IDS F   1     -18.197  42.763 174.0220  0.00  0.00     0.000 C
ATOM      6  O5  IDS F   1     -16.847  42.688 173.7050  0.00  0.00     0.000 O
ATOM      7   S  IDS F   1     -14.656  42.238 177.5810  0.00  0.00     0.000 S
ATOM      8   O  IDS F   1     -15.744  42.365 178.5030  0.00  0.00     0.000 OA
ATOM      9   O  IDS F   1     -14.140  40.900 177.5700  0.00  0.00     0.000 OA
ATOM     10   O  IDS F   1     -13.634  43.242 177.7630  0.00  0.00     0.000 OA
ATOM     11   O  IDS F   1     -15.293  42.531 176.1550  0.00  0.00     0.000 O
ATOM     12   O  IDS F   1     -18.143  44.671 176.5060  0.00  0.00     0.000 O
ATOM     14  HD  IDS F   1     -18.988  44.848 176.4360  0.00  0.00     0.000 HD
ATOM     14   O  IDS F   1     -18.051  41.159 175.8060  0.00  0.00     0.000 O
ATOM     16  HD  IDS F   1     -18.896  41.336 175.7360  0.00  0.00     0.000 HD
ATOM     16   O  IDS F   1     -18.464  41.480 172.0340  0.00  0.00     0.000 OA
ATOM     17   O  IDS F   1     -20.156  41.616 173.2560  0.00  0.00     0.000 OA
ATOM     18   C  IDS F   1     -18.987  41.902 173.0570  0.00  0.00     0.000 C
ENDROOT
BRANCH 1 19
ATOM     19  O4  SGN F   2     -14.801  43.640 173.7600  0.00  0.00     0.000 O
BRANCH 19 23
ATOM     20  C1  SGN F   2     -13.729  47.258 171.9840  0.00  0.00     0.000 C
ATOM     21  C2  SGN F   2     -14.266  46.199 171.0340  0.00  0.00     0.000 C
ATOM     22  C3  SGN F   2     -15.121  45.170 171.7880  0.00  0.00     0.000 C
ATOM     23  C4  SGN F   2     -14.193  44.577 172.8960  0.00  0.00     0.000 C
ATOM     24  C5  SGN F   2     -13.772  45.724 173.7530  0.00  0.00     0.000 C
ATOM     25  O5  SGN F   2     -13.017  46.631 173.0140  0.00  0.00     0.000 O
ATOM     26   N  SGN F   2     -14.933  46.870 169.8930  0.00  0.00     0.000 N
ATOM     28  HD  SGN F   2     -15.677  46.762 169.4640  0.00  0.00     0.000 HD
ATOM     28   S  SGN F   2     -13.963  47.413 168.6380  0.00  0.00     0.000 S
ATOM     29   O  SGN F   2     -12.881  48.173 169.2230  0.00  0.00     0.000 OA
ATOM     30   O  SGN F   2     -13.501  46.209 167.9850  0.00  0.00     0.000 OA
ATOM     31   O  SGN F   2     -14.792  48.180 167.7830  0.00  0.00     0.000 OA
ATOM     32   O  SGN F   2     -15.516  44.158 170.8700  0.00  0.00     0.000 O
ATOM     34  HD  SGN F   2     -16.261  44.050 170.4410  0.00  0.00     0.000 HD
ATOM     34   C  SGN F   2     -12.916  45.297 174.8980  0.00  0.00     0.000 C
ATOM     35   O  SGN F   2     -11.864  44.597 174.3260  0.00  0.00     0.000 O
ATOM     36   S  SGN F   2     -10.605  44.096 175.0250  0.00  0.00     0.000 S
ATOM     37   O  SGN F   2     -10.565  42.683 174.7420  0.00  0.00     0.000 OA
ATOM     38   O  SGN F   2      -9.533  44.860 174.4240  0.00  0.00     0.000 OA
ATOM     39   O  SGN F   2     -10.762  44.383 176.4450  0.00  0.00     0.000 OA
BRANCH 20 40
ATOM     40  O4  IDS F   3     -14.760  48.047 172.5140  0.00  0.00     0.000 O
BRANCH 40 44
ATOM     41  C1  IDS F   3     -17.376  50.343 172.7940  0.00  0.00     0.000 C
ATOM     42  C2  IDS F   3     -17.138  49.627 171.4880  0.00  0.00     0.000 C
ATOM     43  C3  IDS F   3     -15.634  49.701 171.0190  0.00  0.00     0.000 C
ATOM     44  C4  IDS F   3     -14.675  49.421 172.1600  0.00  0.00     0.000 C
ATOM     45  C5  IDS F   3     -15.054  50.292 173.3570  0.00  0.00     0.000 C
ATOM     46  O5  IDS F   3     -16.373  50.006 173.7640  0.00  0.00     0.000 O
ATOM     47   O  IDS F   3     -17.989  47.140 169.5990  0.00  0.00     0.000 OA
ATOM     48   O  IDS F   3     -19.054  46.398 171.5780  0.00  0.00     0.000 OA
ATOM     49   O  IDS F   3     -19.609  48.522 170.5850  0.00  0.00     0.000 OA
ATOM     50   O  IDS F   3     -17.550  48.263 171.6340  0.00  0.00     0.000 O
ATOM     51   S  IDS F   3     -18.619  47.533 170.8080  0.00  0.00     0.000 S
ATOM     52   O  IDS F   3     -15.346  51.012 170.5450  0.00  0.00     0.000 O
ATOM     54  HD  IDS F   3     -16.076  50.546 170.5580  0.00  0.00     0.000 HD
ATOM     54   C  IDS F   3     -14.094  50.215 174.5490  0.00  0.00     0.000 C
ATOM     55   O  IDS F   3     -14.341  49.503 175.5190  0.00  0.00     0.000 OA
ATOM     56   O  IDS F   3     -13.036  50.859 174.5650  0.00  0.00     0.000 OA
BRANCH 41 57
ATOM     57  O4  SGN F   4     -17.437  51.717 172.5470  0.00  0.00     0.000 O
BRANCH 57 61
ATOM     58  C1  SGN F   4     -19.213  54.753 174.6380  0.00  0.00     0.000 C
ATOM     59  C2  SGN F   4     -17.677  54.768 174.5930  0.00  0.00     0.000 C
ATOM     60  C3  SGN F   4     -17.145  53.869 173.4910  0.00  0.00     0.000 C
ATOM     61  C4  SGN F   4     -17.762  52.482 173.6610  0.00  0.00     0.000 C
ATOM     62  C5  SGN F   4     -19.296  52.591 173.7540  0.00  0.00     0.000 C
ATOM     63  O5  SGN F   4     -19.671  53.439 174.7960  0.00  0.00     0.000 O
ATOM     64   N  SGN F   4     -17.181  56.124 174.4570  0.00  0.00     0.000 N
ATOM     66  HD  SGN F   4     -17.719  55.599 174.8870  0.00  0.00     0.000 HD
ATOM     66   S  SGN F   4     -16.967  56.989 175.8220  0.00  0.00     0.000 S
ATOM     67   O  SGN F   4     -18.295  57.247 176.3460  0.00  0.00     0.000 OA
ATOM     68   O  SGN F   4     -16.159  56.195 176.7450  0.00  0.00     0.000 OA
ATOM     69   O  SGN F   4     -16.313  58.190 175.3530  0.00  0.00     0.000 OA
ATOM     70   O  SGN F   4     -15.736  53.741 173.6140  0.00  0.00     0.000 O
ATOM     72  HD  SGN F   4     -16.275  53.217 174.0440  0.00  0.00     0.000 HD
ATOM     72   C  SGN F   4     -19.995  51.290 174.0500  0.00  0.00     0.000 C
ATOM     73   O  SGN F   4     -19.505  50.821 175.2850  0.00  0.00     0.000 O
ATOM     74   S  SGN F   4     -20.304  49.958 176.3040  0.00  0.00     0.000 S
ATOM     75   O  SGN F   4     -21.186  49.105 175.5780  0.00  0.00     0.000 OA
ATOM     76   O  SGN F   4     -19.329  49.197 177.0830  0.00  0.00     0.000 OA
ATOM     77   O  SGN F   4     -21.039  50.910 177.0410  0.00  0.00     0.000 OA
BRANCH 58 78
ATOM     78  O4  IDS F   5     -19.753  55.352 173.4850  0.00  0.00     0.000 O
BRANCH 78 82
ATOM     79  C1  IDS F   5     -21.689  56.967 171.0780  0.00  0.00     0.000 C
ATOM     80  C2  IDS F   5     -20.393  57.583 171.5870  0.00  0.00     0.000 C
ATOM     81  C3  IDS F   5     -20.354  57.648 173.1160  0.00  0.00     0.000 C
ATOM     82  C4  IDS F   5     -20.757  56.292 173.7340  0.00  0.00     0.000 C
ATOM     83  C5  IDS F   5     -22.071  55.811 173.1140  0.00  0.00     0.000 C
ATOM     84  O5  IDS F   5     -21.958  55.741 171.7080  0.00  0.00     0.000 O
ATOM     85   O  IDS F   5     -22.720  57.905 171.2590  0.00  0.00     0.000 OA
ATOM     86   O  IDS F   5     -19.332  56.769 171.1740  0.00  0.00     0.000 O
ATOM     87   S  IDS F   5     -17.813  57.134 171.1000  0.00  0.00     0.000 S
ATOM     88   O  IDS F   5     -17.554  58.097 172.1370  0.00  0.00     0.000 OA
ATOM     89   O  IDS F   5     -17.092  55.899 171.3110  0.00  0.00     0.000 OA
ATOM     90   O  IDS F   5     -17.632  57.697 169.7880  0.00  0.00     0.000 OA
ATOM     91   O  IDS F   5     -21.274  58.636 173.5370  0.00  0.00     0.000 O
ATOM     93  HD  IDS F   5     -21.935  58.144 173.8020  0.00  0.00     0.000 HD
ATOM     93   O  IDS F   5     -22.656  53.512 172.9980  0.00  0.00     0.000 OA
ATOM     94   O  IDS F   5     -22.913  54.409 174.8490  0.00  0.00     0.000 OA
ATOM     95   C  IDS F   5     -22.578  54.499 173.6830  0.00  0.00     0.000 C
ENDBRANCH 78 82
ENDBRANCH 58 78
ENDBRANCH 57 61
ENDBRANCH 41 57
ENDBRANCH 40 44
ENDBRANCH 20 40
ENDBRANCH 19 23
ENDBRANCH 1 19
TORSDOF 8
ENDMDL
MODEL 7
REMARK VINA RESULT:      -7.0      2.061      2.688
FFDIST PL LJ 2322 74 36 -1
ROOT
ATOM      1  C1  IDS F   1     -10.853  45.590 172.0830  0.00  0.00     0.000 C
ATOM      2  C2  IDS F   1      -9.647  46.543 172.0570  0.00  0.00     0.000 C
ATOM      3  C3  IDS F   1      -8.323  45.840 171.6690  0.00  0.00     0.000 C
ATOM      4  C4  IDS F   1      -8.484  44.757 170.5770  0.00  0.00     0.000 C
ATOM      5  C5  IDS F   1      -9.787  43.977 170.7870  0.00  0.00     0.000 C
ATOM      6  O5  IDS F   1     -10.861  44.853 170.8900  0.00  0.00     0.000 O
ATOM      7   S  IDS F   1      -9.128  48.977 171.0050  0.00  0.00     0.000 S
ATOM      8   O  IDS F   1      -7.731  48.664 171.0280  0.00  0.00     0.000 OA
ATOM      9   O  IDS F   1      -9.503  49.579 169.7580  0.00  0.00     0.000 OA
ATOM     10   O  IDS F   1      -9.563  49.733 172.1560  0.00  0.00     0.000 OA
ATOM     11   O  IDS F   1      -9.863  47.573 171.1130  0.00  0.00     0.000 O
ATOM     12   O  IDS F   1      -7.771  45.229 172.8320  0.00  0.00     0.000 O
ATOM     14  HD  IDS F   1      -7.307  44.499 172.8800  0.00  0.00     0.000 HD
ATOM     14   O  IDS F   1      -8.523  45.416 169.3350  0.00  0.00     0.000 O
ATOM     16  HD  IDS F   1      -8.059  44.686 169.3830  0.00  0.00     0.000 HD
ATOM     16   O  IDS F   1     -11.255  42.764 169.3600  0.00  0.00     0.000 OA
ATOM     17   O  IDS F   1      -9.253  42.158 169.3230  0.00  0.00     0.000 OA
ATOM     18   C  IDS F   1     -10.109  42.908 169.7630  0.00  0.00     0.000 C
ENDROOT
BRANCH 1 19
ATOM     19  O4  SGN F   2     -12.019  46.339 172.1330  0.00  0.00     0.000 O
BRANCH 19 23
ATOM     20  C1  SGN F   2     -15.227  47.309 174.6150  0.00  0.00     0.000 C
ATOM     21  C2  SGN F   2     -13.858  47.338 175.2760  0.00  0.00     0.000 C
ATOM     22  C3  SGN F   2     -12.748  47.521 174.2310  0.00  0.00     0.000 C
ATOM     23  C4  SGN F   2     -12.911  46.335 173.2260  0.00  0.00     0.000 C
ATOM     24  C5  SGN F   2     -14.282  46.456 172.6490  0.00  0.00     0.000 C
ATOM     25  O5  SGN F   2     -15.244  46.301 173.6430  0.00  0.00     0.000 O
ATOM     26   N  SGN F   2     -13.875  48.337 176.3710  0.00  0.00     0.000 N
ATOM     28  HD  SGN F   2     -13.345  48.967 176.6390  0.00  0.00     0.000 HD
ATOM     28   S  SGN F   2     -14.507  47.859 177.8470  0.00  0.00     0.000 S
ATOM     29   O  SGN F   2     -15.788  47.239 177.5910  0.00  0.00     0.000 OA
ATOM     30   O  SGN F   2     -13.539  46.925 178.3770  0.00  0.00     0.000 OA
ATOM     31   O  SGN F   2     -14.596  49.023 178.6510  0.00  0.00     0.000 OA
ATOM     32   O  SGN F   2     -11.492  47.448 174.8940  0.00  0.00     0.000 O
ATOM     34  HD  SGN F   2     -10.962  48.078 175.1620  0.00  0.00     0.000 HD
ATOM     34   C  SGN F   2     -14.563  45.412 171.6210  0.00  0.00     0.000 C
ATOM     35   O  SGN F   2     -14.317  44.203 172.2550  0.00  0.00     0.000 O
ATOM     36   S  SGN F   2     -14.620  42.806 171.7220  0.00  0.00     0.000 S
ATOM     37   O  SGN F   2     -13.361  42.108 171.7820  0.00  0.00     0.000 OA
ATOM     38   O  SGN F   2     -15.635  42.294 172.6150  0.00  0.00     0.000 OA
ATOM     39   O  SGN F   2     -15.111  42.967 170.3590  0.00  0.00     0.000 OA
BRANCH 20 40
ATOM     40  O4  IDS F   3     -15.549  48.546 174.0400  0.00  0.00     0.000 O
BRANCH 40 44
ATOM     41  C1  IDS F   3     -16.475  51.891 173.6560  0.00  0.00     0.000 C
ATOM     42  C2  IDS F   3     -15.752  51.447 174.9030  0.00  0.00     0.000 C
ATOM     43  C3  IDS F   3     -16.409  50.177 175.5680  0.00  0.00     0.000 C
ATOM     44  C4  IDS F   3     -16.752  49.117 174.5380  0.00  0.00     0.000 C
ATOM     45  C5  IDS F   3     -17.534  49.764 173.3960  0.00  0.00     0.000 C
ATOM     46  O5  IDS F   3     -16.761  50.779 172.7950  0.00  0.00     0.000 O
ATOM     47   O  IDS F   3     -12.895  51.210 176.4070  0.00  0.00     0.000 OA
ATOM     48   O  IDS F   3     -12.063  51.682 174.2420  0.00  0.00     0.000 OA
ATOM     49   O  IDS F   3     -13.553  53.206 175.3640  0.00  0.00     0.000 OA
ATOM     50   O  IDS F   3     -14.385  51.185 174.5690  0.00  0.00     0.000 O
ATOM     51   S  IDS F   3     -13.145  51.863 175.1720  0.00  0.00     0.000 S
ATOM     52   O  IDS F   3     -17.627  50.548 176.2040  0.00  0.00     0.000 O
ATOM     54  HD  IDS F   3     -16.895  50.985 176.0500  0.00  0.00     0.000 HD
ATOM     54   C  IDS F   3     -18.064  48.792 172.3360  0.00  0.00     0.000 C
ATOM     55   O  IDS F   3     -17.468  48.622 171.2750  0.00  0.00     0.000 OA
ATOM     56   O  IDS F   3     -19.102  48.143 172.5220  0.00  0.00     0.000 OA
BRANCH 41 57
ATOM     57  O4  SGN F   4     -17.629  52.585 174.0300  0.00  0.00     0.000 O
BRANCH 57 61
ATOM     58  C1  SGN F   4     -19.854  55.637 172.4540  0.00  0.00     0.000 C
ATOM     59  C2  SGN F   4     -20.243  54.217 172.0150  0.00  0.00     0.000 C
ATOM     60  C3  SGN F   4     -19.647  53.168 172.9380  0.00  0.00     0.000 C
ATOM     61  C4  SGN F   4     -18.143  53.411 173.0380  0.00  0.00     0.000 C
ATOM     62  C5  SGN F   4     -17.868  54.877 173.4250  0.00  0.00     0.000 C
ATOM     63  O5  SGN F   4     -18.459  55.751 172.5120  0.00  0.00     0.000 O
ATOM     64   N  SGN F   4     -21.684  54.084 171.9220  0.00  0.00     0.000 N
ATOM     66  HD  SGN F   4     -20.995  54.563 171.7090  0.00  0.00     0.000 HD
ATOM     66   S  SGN F   4     -22.392  54.515 170.5180  0.00  0.00     0.000 S
ATOM     67   O  SGN F   4     -22.254  55.957 170.4250  0.00  0.00     0.000 OA
ATOM     68   O  SGN F   4     -21.702  53.827 169.4290  0.00  0.00     0.000 OA
ATOM     69   O  SGN F   4     -23.765  54.101 170.6990  0.00  0.00     0.000 OA
ATOM     70   O  SGN F   4     -19.847  51.874 172.3860  0.00  0.00     0.000 O
ATOM     72  HD  SGN F   4     -19.158  52.353 172.1730  0.00  0.00     0.000 HD
ATOM     72   C  SGN F   4     -16.409  55.257 173.4260  0.00  0.00     0.000 C
ATOM     73   O  SGN F   4     -15.917  55.038 172.1250  0.00  0.00     0.000 O
ATOM     74   S  SGN F   4     -14.763  55.836 171.4510  0.00  0.00     0.000 S
ATOM     75   O  SGN F   4     -13.825  56.207 172.4580  0.00  0.00     0.000 OA
ATOM     76   O  SGN F   4     -14.165  54.961 170.4440  0.00  0.00     0.000 OA
ATOM     77   O  SGN F   4     -15.407  56.980 170.9360  0.00  0.00     0.000 OA
BRANCH 58 78
ATOM     78  O4  IDS F   5     -20.449  55.959 173.6880  0.00  0.00     0.000 O
BRANCH 78 82
ATOM     79  C1  IDS F   5     -21.856  57.459 176.5020  0.00  0.00     0.000 C
ATOM     80  C2  IDS F   5     -22.704  56.633 175.5460  0.00  0.00     0.000 C
ATOM     81  C3  IDS F   5     -22.532  57.085 174.0940  0.00  0.00     0.000 C
ATOM     82  C4  IDS F   5     -21.037  57.227 173.7360  0.00  0.00     0.000 C
ATOM     83  C5  IDS F   5     -20.330  58.077 174.7930  0.00  0.00     0.000 C
ATOM     84  O5  IDS F   5     -20.518  57.524 176.0800  0.00  0.00     0.000 O
ATOM     85   O  IDS F   5     -22.446  58.729 176.6230  0.00  0.00     0.000 OA
ATOM     86   O  IDS F   5     -22.277  55.301 175.6250  0.00  0.00     0.000 O
ATOM     87   S  IDS F   5     -23.039  54.019 175.1560  0.00  0.00     0.000 S
ATOM     88   O  IDS F   5     -23.858  54.394 174.0340  0.00  0.00     0.000 OA
ATOM     89   O  IDS F   5     -22.022  53.059 174.7910  0.00  0.00     0.000 OA
ATOM     90   O  IDS F   5     -23.831  53.624 176.2900  0.00  0.00     0.000 OA
ATOM     91   O  IDS F   5     -23.160  58.343 173.9480  0.00  0.00     0.000 O
ATOM     93  HD  IDS F   5     -22.474  58.872 173.9550  0.00  0.00     0.000 HD
ATOM     93   O  IDS F   5     -18.007  57.873 175.2470  0.00  0.00     0.000 OA
ATOM     94   O  IDS F   5     -18.496  58.943 173.5400  0.00  0.00     0.000 OA
ATOM     95   C  IDS F   5     -18.857  58.311 174.5150  0.00  0.00     0.000 C
ENDBRANCH 78 82
ENDBRANCH 58 78
ENDBRANCH 57 61
ENDBRANCH 41 57
ENDBRANCH 40 44
ENDBRANCH 20 40
ENDBRANCH 19 23
ENDBRANCH 1 19
TORSDOF 8
ENDMDL
MODEL 8
REMARK VINA RESULT:      -6.8      2.726      5.699
FFDIST PL LJ 2322 74 36 -1
ROOT
ATOM      1  C1  IDS F   1      -8.790  46.441 171.5450  0.00  0.00     0.000 C
ATOM      2  C2  IDS F   1      -8.208  45.144 172.1310  0.00  0.00     0.000 C
ATOM      3  C3  IDS F   1      -6.697  44.971 171.8460  0.00  0.00     0.000 C
ATOM      4  C4  IDS F   1      -5.889  46.288 171.9180  0.00  0.00     0.000 C
ATOM      5  C5  IDS F   1      -6.701  47.444 171.3230  0.00  0.00     0.000 C
ATOM      6  O5  IDS F   1      -7.956  47.506 171.9160  0.00  0.00     0.000 O
ATOM      7   S  IDS F   1      -8.310  43.883 174.5180  0.00  0.00     0.000 S
ATOM      8   O  IDS F   1      -7.085  43.217 174.1930  0.00  0.00     0.000 OA
ATOM      9   O  IDS F   1      -8.288  44.380 175.8630  0.00  0.00     0.000 OA
ATOM     10   O  IDS F   1      -9.484  43.096 174.2210  0.00  0.00     0.000 OA
ATOM     11   O  IDS F   1      -8.371  45.129 173.5350  0.00  0.00     0.000 O
ATOM     12   O  IDS F   1      -6.536  44.415 170.5430  0.00  0.00     0.000 O
ATOM     14  HD  IDS F   1      -5.893  44.555 169.9810  0.00  0.00     0.000 HD
ATOM     14   O  IDS F   1      -5.625  46.545 173.2750  0.00  0.00     0.000 O
ATOM     16  HD  IDS F   1      -4.982  46.685 172.7130  0.00  0.00     0.000 HD
ATOM     16   O  IDS F   1      -6.727  49.803 171.6410  0.00  0.00     0.000 OA
ATOM     17   O  IDS F   1      -4.875  48.981 171.1200  0.00  0.00     0.000 OA
ATOM     18   C  IDS F   1      -6.059  48.815 171.3670  0.00  0.00     0.000 C
ENDROOT
BRANCH 1 19
ATOM     19  O4  SGN F   2     -10.042  46.664 172.0980  0.00  0.00     0.000 O
BRANCH 19 23
ATOM     20  C1  SGN F   2     -14.041  46.798 170.9220  0.00  0.00     0.000 C
ATOM     21  C2  SGN F   2     -13.558  45.453 171.4400  0.00  0.00     0.000 C
ATOM     22  C3  SGN F   2     -12.320  45.622 172.3320  0.00  0.00     0.000 C
ATOM     23  C4  SGN F   2     -11.256  46.349 171.4500  0.00  0.00     0.000 C
ATOM     24  C5  SGN F   2     -11.863  47.650 171.0430  0.00  0.00     0.000 C
ATOM     25  O5  SGN F   2     -12.988  47.436 170.2530  0.00  0.00     0.000 O
ATOM     26   N  SGN F   2     -14.700  44.739 172.0590  0.00  0.00     0.000 N
ATOM     28  HD  SGN F   2     -14.823  44.291 172.7900  0.00  0.00     0.000 HD
ATOM     28   S  SGN F   2     -15.736  43.903 171.0420  0.00  0.00     0.000 S
ATOM     29   O  SGN F   2     -16.109  44.800 169.9710  0.00  0.00     0.000 OA
ATOM     30   O  SGN F   2     -14.962  42.777 170.5730  0.00  0.00     0.000 OA
ATOM     31   O  SGN F   2     -16.835  43.483 171.8320  0.00  0.00     0.000 OA
ATOM     32   O  SGN F   2     -11.860  44.329 172.7090  0.00  0.00     0.000 O
ATOM     34  HD  SGN F   2     -11.984  43.881 173.4400  0.00  0.00     0.000 HD
ATOM     34   C  SGN F   2     -10.931  48.487 170.2320  0.00  0.00     0.000 C
ATOM     35   O  SGN F   2     -10.548  47.680 169.1700  0.00  0.00     0.000 O
ATOM     36   S  SGN F   2      -9.746  48.096 167.9420  0.00  0.00     0.000 S
ATOM     37   O  SGN F   2      -8.626  47.190 167.9090  0.00  0.00     0.000 OA
ATOM     38   O  SGN F   2     -10.673  47.945 166.8410  0.00  0.00     0.000 OA
ATOM     39   O  SGN F   2      -9.345  49.483 168.1420  0.00  0.00     0.000 OA
BRANCH 20 40
ATOM     40  O4  IDS F   3     -14.521  47.609 171.9610  0.00  0.00     0.000 O
BRANCH 40 44
ATOM     41  C1  IDS F   3     -16.989  49.953 172.7390  0.00  0.00     0.000 C
ATOM     42  C2  IDS F   3     -16.950  49.326 171.3680  0.00  0.00     0.000 C
ATOM     43  C3  IDS F   3     -15.519  49.391 170.7100  0.00  0.00     0.000 C
ATOM     44  C4  IDS F   3     -14.430  49.002 171.6920  0.00  0.00     0.000 C
ATOM     45  C5  IDS F   3     -14.617  49.796 172.9850  0.00  0.00     0.000 C
ATOM     46  O5  IDS F   3     -15.882  49.519 173.5430  0.00  0.00     0.000 O
ATOM     47   O  IDS F   3     -18.134  47.007 169.4450  0.00  0.00     0.000 OA
ATOM     48   O  IDS F   3     -18.959  46.156 171.4930  0.00  0.00     0.000 OA
ATOM     49   O  IDS F   3     -19.558  48.360 170.7280  0.00  0.00     0.000 OA
ATOM     50   O  IDS F   3     -17.391  47.968 171.4750  0.00  0.00     0.000 O
ATOM     51   S  IDS F   3     -18.585  47.330 170.7500  0.00  0.00     0.000 S
ATOM     52   O  IDS F   3     -15.246  50.724 170.2920  0.00  0.00     0.000 O
ATOM     54  HD  IDS F   3     -15.985  50.279 170.3700  0.00  0.00     0.000 HD
ATOM     54   C  IDS F   3     -13.513  49.606 174.0320  0.00  0.00     0.000 C
ATOM     55   O  IDS F   3     -13.659  48.833 174.9750  0.00  0.00     0.000 OA
ATOM     56   O  IDS F   3     -12.439  50.216 173.9500  0.00  0.00     0.000 OA
BRANCH 41 57
ATOM     57  O4  SGN F   4     -17.030  51.343 172.5960  0.00  0.00     0.000 O
BRANCH 57 61
ATOM     58  C1  SGN F   4     -18.155  54.406 175.0650  0.00  0.00     0.000 C
ATOM     59  C2  SGN F   4     -16.643  54.168 174.9240  0.00  0.00     0.000 C
ATOM     60  C3  SGN F   4     -16.327  53.308 173.7130  0.00  0.00     0.000 C
ATOM     61  C4  SGN F   4     -17.165  52.034 173.7940  0.00  0.00     0.000 C
ATOM     62  C5  SGN F   4     -18.651  52.389 173.9940  0.00  0.00     0.000 C
ATOM     63  O5  SGN F   4     -18.825  53.179 175.1310  0.00  0.00     0.000 O
ATOM     64   N  SGN F   4     -15.927  55.428 174.8820  0.00  0.00     0.000 N
ATOM     66  HD  SGN F   4     -16.527  54.961 175.2950  0.00  0.00     0.000 HD
ATOM     66   S  SGN F   4     -15.503  56.103 176.3040  0.00  0.00     0.000 S
ATOM     67   O  SGN F   4     -16.740  56.526 176.9320  0.00  0.00     0.000 OA
ATOM     68   O  SGN F   4     -14.802  55.096 177.0970  0.00  0.00     0.000 OA
ATOM     69   O  SGN F   4     -14.674  57.219 175.9070  0.00  0.00     0.000 OA
ATOM     70   O  SGN F   4     -14.957  52.935 173.7350  0.00  0.00     0.000 O
ATOM     72  HD  SGN F   4     -15.558  52.468 174.1480  0.00  0.00     0.000 HD
ATOM     72   C  SGN F   4     -19.551  51.200 174.2140  0.00  0.00     0.000 C
ATOM     73   O  SGN F   4     -19.091  50.533 175.3670  0.00  0.00     0.000 O
ATOM     74   S  SGN F   4     -19.979  49.718 176.3510  0.00  0.00     0.000 S
ATOM     75   O  SGN F   4     -21.028  49.103 175.6070  0.00  0.00     0.000 OA
ATOM     76   O  SGN F   4     -19.114  48.730 176.9940  0.00  0.00     0.000 OA
ATOM     77   O  SGN F   4     -20.503  50.700 177.2170  0.00  0.00     0.000 OA
BRANCH 58 78
ATOM     78  O4  IDS F   5     -18.636  55.200 174.0080  0.00  0.00     0.000 O
BRANCH 78 82
ATOM     79  C1  IDS F   5     -20.428  57.308 171.8870  0.00  0.00     0.000 C
ATOM     80  C2  IDS F   5     -19.019  57.663 172.3420  0.00  0.00     0.000 C
ATOM     81  C3  IDS F   5     -18.874  57.587 173.8630  0.00  0.00     0.000 C
ATOM     82  C4  IDS F   5     -19.454  56.263 174.4050  0.00  0.00     0.000 C
ATOM     83  C5  IDS F   5     -20.866  56.053 173.8530  0.00  0.00     0.000 C
ATOM     84  O5  IDS F   5     -20.856  56.090 172.4410  0.00  0.00     0.000 O
ATOM     85   O  IDS F   5     -21.277  58.379 172.2190  0.00  0.00     0.000 OA
ATOM     86   O  IDS F   5     -18.135  56.730 171.7870  0.00  0.00     0.000 O
ATOM     87   S  IDS F   5     -16.584  56.855 171.6240  0.00  0.00     0.000 S
ATOM     88   O  IDS F   5     -16.105  57.669 172.7090  0.00  0.00     0.000 OA
ATOM     89   O  IDS F   5     -16.065  55.507 171.6840  0.00  0.00     0.000 OA
ATOM     90   O  IDS F   5     -16.397  57.495 170.3500  0.00  0.00     0.000 OA
ATOM     91   O  IDS F   5     -19.589  58.667 174.4290  0.00  0.00     0.000 O
ATOM     93  HD  IDS F   5     -20.305  58.264 174.7050  0.00  0.00     0.000 HD
ATOM     93   O  IDS F   5     -21.828  53.895 173.6050  0.00  0.00     0.000 OA
ATOM     94   O  IDS F   5     -21.816  54.655 175.5340  0.00  0.00     0.000 OA
ATOM     95   C  IDS F   5     -21.545  54.793 174.3560  0.00  0.00     0.000 C
ENDBRANCH 78 82
ENDBRANCH 58 78
ENDBRANCH 57 61
ENDBRANCH 41 57
ENDBRANCH 40 44
ENDBRANCH 20 40
ENDBRANCH 19 23
ENDBRANCH 1 19
TORSDOF 8
ENDMDL
MODEL 9
REMARK VINA RESULT:      -6.8      4.083      8.542
FFDIST PL LJ 2322 74 36 -1
ROOT
ATOM      1  C1  IDS F   1     -18.857  43.532 173.5300  0.00  0.00     0.000 C
ATOM      2  C2  IDS F   1     -19.687  43.805 174.7950  0.00  0.00     0.000 C
ATOM      3  C3  IDS F   1     -21.195  44.003 174.5050  0.00  0.00     0.000 C
ATOM      4  C4  IDS F   1     -21.747  43.075 173.3970  0.00  0.00     0.000 C
ATOM      5  C5  IDS F   1     -20.717  42.915 172.2730  0.00  0.00     0.000 C
ATOM      6  O5  IDS F   1     -19.492  42.519 172.7960  0.00  0.00     0.000 O
ATOM      7   S  IDS F   1     -19.897  42.693 177.2490  0.00  0.00     0.000 S
ATOM      8   O  IDS F   1     -21.213  43.246 177.3620  0.00  0.00     0.000 OA
ATOM      9   O  IDS F   1     -19.870  41.327 177.6840  0.00  0.00     0.000 OA
ATOM     10   O  IDS F   1     -18.879  43.509 177.8700  0.00  0.00     0.000 OA
ATOM     11   O  IDS F   1     -19.575  42.720 175.6930  0.00  0.00     0.000 O
ATOM     12   O  IDS F   1     -21.413  45.355 174.1100  0.00  0.00     0.000 O
ATOM     14  HD  IDS F   1     -22.001  45.657 173.5510  0.00  0.00     0.000 HD
ATOM     14   O  IDS F   1     -22.002  41.824 173.9860  0.00  0.00     0.000 O
ATOM     16  HD  IDS F   1     -22.590  42.126 173.4260  0.00  0.00     0.000 HD
ATOM     16   O  IDS F   1     -20.266  41.235 170.6480  0.00  0.00     0.000 OA
ATOM     17   O  IDS F   1     -22.220  41.983 170.6580  0.00  0.00     0.000 OA
ATOM     18   C  IDS F   1     -21.096  41.992 171.1330  0.00  0.00     0.000 C
ENDROOT
BRANCH 1 19
ATOM     19  O4  SGN F   2     -17.604  43.070 173.9040  0.00  0.00     0.000 O
BRANCH 19 23
ATOM     20  C1  SGN F   2     -14.745  46.033 173.2420  0.00  0.00     0.000 C
ATOM     21  C2  SGN F   2     -15.028  45.123 172.0570  0.00  0.00     0.000 C
ATOM     22  C3  SGN F   2     -16.412  44.470 172.1870  0.00  0.00     0.000 C
ATOM     23  C4  SGN F   2     -16.394  43.704 173.5480  0.00  0.00     0.000 C
ATOM     24  C5  SGN F   2     -16.131  44.726 174.6040  0.00  0.00     0.000 C
ATOM     25  O5  SGN F   2     -14.874  45.296 174.4260  0.00  0.00     0.000 O
ATOM     26   N  SGN F   2     -14.794  45.879 170.8040  0.00  0.00     0.000 N
ATOM     28  HD  SGN F   2     -15.216  45.975 170.0530  0.00  0.00     0.000 HD
ATOM     28   S  SGN F   2     -13.216  45.998 170.2530  0.00  0.00     0.000 S
ATOM     29   O  SGN F   2     -12.399  46.428 171.3660  0.00  0.00     0.000 OA
ATOM     30   O  SGN F   2     -12.881  44.665 169.8060  0.00  0.00     0.000 OA
ATOM     31   O  SGN F   2     -13.226  46.918 169.1750  0.00  0.00     0.000 OA
ATOM     32   O  SGN F   2     -16.582  43.563 171.1040  0.00  0.00     0.000 O
ATOM     34  HD  SGN F   2     -17.004  43.659 170.3530  0.00  0.00     0.000 HD
ATOM     34   C  SGN F   2     -16.140  44.144 175.9770  0.00  0.00     0.000 C
ATOM     35   O  SGN F   2     -15.214  43.111 175.9410  0.00  0.00     0.000 O
ATOM     36   S  SGN F   2     -14.695  42.299 177.1230  0.00  0.00     0.000 S
ATOM     37   O  SGN F   2     -14.952  40.926 176.7670  0.00  0.00     0.000 OA
ATOM     38   O  SGN F   2     -13.293  42.646 177.2080  0.00  0.00     0.000 OA
ATOM     39   O  SGN F   2     -15.445  42.727 178.2970  0.00  0.00     0.000 OA
BRANCH 20 40
ATOM     40  O4  IDS F   3     -15.605  47.140 173.2600  0.00  0.00     0.000 O
BRANCH 40 44
ATOM     41  C1  IDS F   3     -17.237  50.219 173.0360  0.00  0.00     0.000 C
ATOM     42  C2  IDS F   3     -17.188  49.302 171.8390  0.00  0.00     0.000 C
ATOM     43  C3  IDS F   3     -15.731  48.787 171.5270  0.00  0.00     0.000 C
ATOM     44  C4  IDS F   3     -15.011  48.340 172.7850  0.00  0.00     0.000 C
ATOM     45  C5  IDS F   3     -15.128  49.436 173.8440  0.00  0.00     0.000 C
ATOM     46  O5  IDS F   3     -16.486  49.682 174.1350  0.00  0.00     0.000 O
ATOM     47   O  IDS F   3     -18.751  47.046 170.1230  0.00  0.00     0.000 OA
ATOM     48   O  IDS F   3     -20.135  46.984 172.0410  0.00  0.00     0.000 OA
ATOM     49   O  IDS F   3     -19.827  49.020 170.7920  0.00  0.00     0.000 OA
ATOM     50   O  IDS F   3     -18.070  48.199 172.0730  0.00  0.00     0.000 O
ATOM     51   S  IDS F   3     -19.274  47.786 171.2140  0.00  0.00     0.000 S
ATOM     52   O  IDS F   3     -14.963  49.843 170.9590  0.00  0.00     0.000 O
ATOM     54  HD  IDS F   3     -15.810  49.666 170.9410  0.00  0.00     0.000 HD
ATOM     54   C  IDS F   3     -14.338  49.184 175.1330  0.00  0.00     0.000 C
ATOM     55   O  IDS F   3     -14.886  48.734 176.1360  0.00  0.00     0.000 OA
ATOM     56   O  IDS F   3     -13.124  49.415 175.1970  0.00  0.00     0.000 OA
BRANCH 41 57
ATOM     57  O4  SGN F   4     -16.786  51.484 172.6500  0.00  0.00     0.000 O
BRANCH 57 61
ATOM     58  C1  SGN F   4     -17.581  55.286 173.9400  0.00  0.00     0.000 C
ATOM     59  C2  SGN F   4     -16.263  54.665 174.4290  0.00  0.00     0.000 C
ATOM     60  C3  SGN F   4     -15.877  53.455 173.5970  0.00  0.00     0.000 C
ATOM     61  C4  SGN F   4     -17.061  52.490 173.5680  0.00  0.00     0.000 C
ATOM     62  C5  SGN F   4     -18.337  53.230 173.1230  0.00  0.00     0.000 C
ATOM     63  O5  SGN F   4     -18.595  54.320 173.9540  0.00  0.00     0.000 O
ATOM     64   N  SGN F   4     -15.205  55.656 174.4480  0.00  0.00     0.000 N
ATOM     66  HD  SGN F   4     -16.021  55.477 174.6740  0.00  0.00     0.000 HD
ATOM     66   S  SGN F   4     -15.056  56.575 175.7870  0.00  0.00     0.000 S
ATOM     67   O  SGN F   4     -16.223  57.437 175.8130  0.00  0.00     0.000 OA
ATOM     68   O  SGN F   4     -15.004  55.688 176.9470  0.00  0.00     0.000 OA
ATOM     69   O  SGN F   4     -13.832  57.307 175.5510  0.00  0.00     0.000 OA
ATOM     70   O  SGN F   4     -14.780  52.786 174.2030  0.00  0.00     0.000 O
ATOM     72  HD  SGN F   4     -15.596  52.608 174.4290  0.00  0.00     0.000 HD
ATOM     72   C  SGN F   4     -19.591  52.398 173.1830  0.00  0.00     0.000 C
ATOM     73   O  SGN F   4     -19.757  51.985 174.5200  0.00  0.00     0.000 O
ATOM     74   S  SGN F   4     -21.122  51.708 175.2150  0.00  0.00     0.000 S
ATOM     75   O  SGN F   4     -22.023  51.180 174.2440  0.00  0.00     0.000 OA
ATOM     76   O  SGN F   4     -20.870  50.759 176.2970  0.00  0.00     0.000 OA
ATOM     77   O  SGN F   4     -21.547  52.986 175.6340  0.00  0.00     0.000 OA
BRANCH 58 78
ATOM     78  O4  IDS F   5     -17.423  55.848 172.6600  0.00  0.00     0.000 O
BRANCH 78 82
ATOM     79  C1  IDS F   5     -17.610  57.670 169.6950  0.00  0.00     0.000 C
ATOM     80  C2  IDS F   5     -16.433  57.835 170.6450  0.00  0.00     0.000 C
ATOM     81  C3  IDS F   5     -16.890  58.117 172.0780  0.00  0.00     0.000 C
ATOM     82  C4  IDS F   5     -17.986  57.120 172.5120  0.00  0.00     0.000 C
ATOM     83  C5  IDS F   5     -19.088  57.068 171.4510  0.00  0.00     0.000 C
ATOM     84  O5  IDS F   5     -18.544  56.745 170.1880  0.00  0.00     0.000 O
ATOM     85   O  IDS F   5     -18.173  58.939 169.4730  0.00  0.00     0.000 OA
ATOM     86   O  IDS F   5     -15.715  56.633 170.6620  0.00  0.00     0.000 O
ATOM     87   S  IDS F   5     -14.251  56.394 171.1560  0.00  0.00     0.000 S
ATOM     88   O  IDS F   5     -13.995  57.342 172.2080  0.00  0.00     0.000 OA
ATOM     89   O  IDS F   5     -14.204  55.029 171.6280  0.00  0.00     0.000 OA
ATOM     90   O  IDS F   5     -13.427  56.639 170.0010  0.00  0.00     0.000 OA
ATOM     91   O  IDS F   5     -17.420  59.427 172.1210  0.00  0.00     0.000 O
ATOM     93  HD  IDS F   5     -18.270  59.262 172.1240  0.00  0.00     0.000 HD
ATOM     93   O  IDS F   5     -20.468  55.160 171.1410  0.00  0.00     0.000 OA
ATOM     94   O  IDS F   5     -20.954  56.364 172.7570  0.00  0.00     0.000 OA
ATOM     95   C  IDS F   5     -20.238  56.142 171.7990  0.00  0.00     0.000 C
ENDBRANCH 78 82
ENDBRANCH 58 78
ENDBRANCH 57 61
ENDBRANCH 41 57
ENDBRANCH 40 44
ENDBRANCH 20 40
ENDBRANCH 19 23
ENDBRANCH 1 19
TORSDOF 8
ENDMDL
MODEL 10
REMARK VINA RESULT:      -6.8      4.689      6.826
FFDIST PL LJ 2322 74 36 -1
ROOT
ATOM      1  C1  IDS F   1      -8.055  49.927 172.0350  0.00  0.00     0.000 C
ATOM      2  C2  IDS F   1      -7.997  51.089 173.0400  0.00  0.00     0.000 C
ATOM      3  C3  IDS F   1      -6.732  51.968 172.8810  0.00  0.00     0.000 C
ATOM      4  C4  IDS F   1      -6.299  52.185 171.4130  0.00  0.00     0.000 C
ATOM      5  C5  IDS F   1      -6.502  50.901 170.6020  0.00  0.00     0.000 C
ATOM      6  O5  IDS F   1      -7.803  50.436 170.7530  0.00  0.00     0.000 O
ATOM      7   S  IDS F   1      -9.707  53.002 173.8860  0.00  0.00     0.000 S
ATOM      8   O  IDS F   1      -8.585  53.801 174.2750  0.00  0.00     0.000 OA
ATOM      9   O  IDS F   1     -10.684  53.787 173.1890  0.00  0.00     0.000 OA
ATOM     10   O  IDS F   1     -10.265  52.232 174.9740  0.00  0.00     0.000 OA
ATOM     11   O  IDS F   1      -9.116  51.936 172.8680  0.00  0.00     0.000 O
ATOM     12   O  IDS F   1      -5.655  51.353 173.5830  0.00  0.00     0.000 O
ATOM     14  HD  IDS F   1      -4.813  51.366 173.3820  0.00  0.00     0.000 HD
ATOM     14   O  IDS F   1      -7.103  53.211 170.8840  0.00  0.00     0.000 O
ATOM     16  HD  IDS F   1      -6.261  53.224 170.6830  0.00  0.00     0.000 HD
ATOM     16   O  IDS F   1      -6.883  50.422 168.3010  0.00  0.00     0.000 OA
ATOM     17   O  IDS F   1      -5.175  51.556 168.7180  0.00  0.00     0.000 OA
ATOM     18   C  IDS F   1      -6.165  50.971 169.1260  0.00  0.00     0.000 C
ENDROOT
BRANCH 1 19
ATOM     19  O4  SGN F   2      -9.335  49.391 172.0400  0.00  0.00     0.000 O
BRANCH 19 23
ATOM     20  C1  SGN F   2     -11.479  45.939 172.9800  0.00  0.00     0.000 C
ATOM     21  C2  SGN F   2     -10.536  46.437 174.0630  0.00  0.00     0.000 C
ATOM     22  C3  SGN F   2     -10.233  47.932 173.8820  0.00  0.00     0.000 C
ATOM     23  C4  SGN F   2      -9.634  48.072 172.4460  0.00  0.00     0.000 C
ATOM     24  C5  SGN F   2     -10.676  47.570 171.5030  0.00  0.00     0.000 C
ATOM     25  O5  SGN F   2     -10.922  46.219 171.7250  0.00  0.00     0.000 O
ATOM     26   N  SGN F   2     -11.080  46.052 175.3880  0.00  0.00     0.000 N
ATOM     28  HD  SGN F   2     -11.188  46.450 176.1490  0.00  0.00     0.000 HD
ATOM     28   S  SGN F   2     -10.776  44.495 175.9280  0.00  0.00     0.000 S
ATOM     29   O  SGN F   2     -11.125  43.588 174.8570  0.00  0.00     0.000 OA
ATOM     30   O  SGN F   2      -9.362  44.479 176.2250  0.00  0.00     0.000 OA
ATOM     31   O  SGN F   2     -11.553  44.309 177.0990  0.00  0.00     0.000 OA
ATOM     32   O  SGN F   2      -9.278  48.317 174.8640  0.00  0.00     0.000 O
ATOM     34  HD  SGN F   2      -9.386  48.715 175.6260  0.00  0.00     0.000 HD
ATOM     34   C  SGN F   2     -10.262  47.695 170.0750  0.00  0.00     0.000 C
ATOM     35   O  SGN F   2      -9.047  47.030 169.9890  0.00  0.00     0.000 O
ATOM     36   S  SGN F   2      -8.270  46.696 168.7210  0.00  0.00     0.000 S
ATOM     37   O  SGN F   2      -6.962  47.263 168.9300  0.00  0.00     0.000 OA
ATOM     38   O  SGN F   2      -8.295  45.251 168.6550  0.00  0.00     0.000 OA
ATOM     39   O  SGN F   2      -8.981  47.314 167.6080  0.00  0.00     0.000 OA
BRANCH 20 40
ATOM     40  O4  IDS F   3     -12.748  46.525 173.0910  0.00  0.00     0.000 O
BRANCH 40 44
ATOM     41  C1  IDS F   3     -16.082  47.258 173.8240  0.00  0.00     0.000 C
ATOM     42  C2  IDS F   3     -15.189  46.669 174.8860  0.00  0.00     0.000 C
ATOM     43  C3  IDS F   3     -14.411  45.392 174.3880  0.00  0.00     0.000 C
ATOM     44  C4  IDS F   3     -13.820  45.595 173.0060  0.00  0.00     0.000 C
ATOM     45  C5  IDS F   3     -14.905  46.134 172.0730  0.00  0.00     0.000 C
ATOM     46  O5  IDS F   3     -15.399  47.359 172.5650  0.00  0.00     0.000 O
ATOM     47   O  IDS F   3     -13.290  47.284 177.4350  0.00  0.00     0.000 OA
ATOM     48   O  IDS F   3     -13.466  49.507 176.6440  0.00  0.00     0.000 OA
ATOM     49   O  IDS F   3     -15.424  48.242 177.2550  0.00  0.00     0.000 OA
ATOM     50   O  IDS F   3     -14.268  47.678 175.3180  0.00  0.00     0.000 O
ATOM     51   S  IDS F   3     -14.102  48.220 176.7450  0.00  0.00     0.000 S
ATOM     52   O  IDS F   3     -15.310  44.291 174.2990  0.00  0.00     0.000 O
ATOM     54  HD  IDS F   3     -15.296  44.991 174.8090  0.00  0.00     0.000 HD
ATOM     54   C  IDS F   3     -14.492  46.270 170.6040  0.00  0.00     0.000 C
ATOM     55   O  IDS F   3     -14.141  47.352 170.1400  0.00  0.00     0.000 OA
ATOM     56   O  IDS F   3     -14.489  45.292 169.8450  0.00  0.00     0.000 OA
BRANCH 41 57
ATOM     57  O4  SGN F   4     -17.245  46.486 173.7380  0.00  0.00     0.000 O
BRANCH 57 61
ATOM     58  C1  SGN F   4     -21.242  47.327 173.4890  0.00  0.00     0.000 C
ATOM     59  C2  SGN F   4     -20.522  47.051 172.1600  0.00  0.00     0.000 C
ATOM     60  C3  SGN F   4     -19.183  46.370 172.3840  0.00  0.00     0.000 C
ATOM     61  C4  SGN F   4     -18.379  47.204 173.3790  0.00  0.00     0.000 C
ATOM     62  C5  SGN F   4     -19.216  47.470 174.6460  0.00  0.00     0.000 C
ATOM     63  O5  SGN F   4     -20.420  48.095 174.3240  0.00  0.00     0.000 O
ATOM     64   N  SGN F   4     -21.367  46.278 171.2700  0.00  0.00     0.000 N
ATOM     66  HD  SGN F   4     -21.321  46.965 171.7950  0.00  0.00     0.000 HD
ATOM     66   S  SGN F   4     -22.413  47.097 170.3230  0.00  0.00     0.000 S
ATOM     67   O  SGN F   4     -23.412  47.653 171.2170  0.00  0.00     0.000 OA
ATOM     68   O  SGN F   4     -21.671  48.138 169.6160  0.00  0.00     0.000 OA
ATOM     69   O  SGN F   4     -22.952  46.070 169.4610  0.00  0.00     0.000 OA
ATOM     70   O  SGN F   4     -18.459  46.324 171.1630  0.00  0.00     0.000 O
ATOM     72  HD  SGN F   4     -18.413  47.011 171.6880  0.00  0.00     0.000 HD
ATOM     72   C  SGN F   4     -18.561  48.392 175.6410  0.00  0.00     0.000 C
ATOM     73   O  SGN F   4     -18.333  49.620 174.9890  0.00  0.00     0.000 O
ATOM     74   S  SGN F   4     -18.316  51.016 175.6770  0.00  0.00     0.000 S
ATOM     75   O  SGN F   4     -17.794  50.863 176.9940  0.00  0.00     0.000 OA
ATOM     76   O  SGN F   4     -17.477  51.889 174.8570  0.00  0.00     0.000 OA
ATOM     77   O  SGN F   4     -19.678  51.380 175.7280  0.00  0.00     0.000 OA
BRANCH 58 78
ATOM     78  O4  IDS F   5     -21.624  46.123 174.1100  0.00  0.00     0.000 O
BRANCH 78 82
ATOM     79  C1  IDS F   5     -23.090  43.570 175.9760  0.00  0.00     0.000 C
ATOM     80  C2  IDS F   5     -23.217  43.607 174.4600  0.00  0.00     0.000 C
ATOM     81  C3  IDS F   5     -23.723  44.963 173.9620  0.00  0.00     0.000 C
ATOM     82  C4  IDS F   5     -22.930  46.118 174.6110  0.00  0.00     0.000 C
ATOM     83  C5  IDS F   5     -22.891  45.930 176.1290  0.00  0.00     0.000 C
ATOM     84  O5  IDS F   5     -22.354  44.665 176.4580  0.00  0.00     0.000 O
ATOM     85   O  IDS F   5     -24.384  43.507 176.5220  0.00  0.00     0.000 OA
ATOM     86   O  IDS F   5     -21.945  43.406 173.9110  0.00  0.00     0.000 O
ATOM     87   S  IDS F   5     -21.584  42.982 172.4500  0.00  0.00     0.000 S
ATOM     88   O  IDS F   5     -22.610  43.505 171.5870  0.00  0.00     0.000 OA
ATOM     89   O  IDS F   5     -20.290  43.561 172.1710  0.00  0.00     0.000 OA
ATOM     90   O  IDS F   5     -21.585  41.543 172.4720  0.00  0.00     0.000 OA
ATOM     91   O  IDS F   5     -25.085  45.083 174.3210  0.00  0.00     0.000 O
ATOM     93  HD  IDS F   5     -25.029  45.611 175.0060  0.00  0.00     0.000 HD
ATOM     93   O  IDS F   5     -21.149  46.816 177.4790  0.00  0.00     0.000 OA
ATOM     94   O  IDS F   5     -22.587  48.177 176.8650  0.00  0.00     0.000 OA
ATOM     95   C  IDS F   5     -22.165  47.036 176.8710  0.00  0.00     0.000 C
ENDBRANCH 78 82
ENDBRANCH 58 78
ENDBRANCH 57 61
ENDBRANCH 41 57
ENDBRANCH 40 44
ENDBRANCH 20 40
ENDBRANCH 19 23
ENDBRANCH 1 19
TORSDOF 8
ENDMDL
MODEL 11
REMARK VINA RESULT:      -6.7      1.940      2.760
FFDIST PL LJ 2322 74 36 -1
ROOT
ATOM      1  C1  IDS F   1     -11.487  46.023 174.0330  0.00  0.00     0.000 C
ATOM      2  C2  IDS F   1     -10.192  46.618 173.4530  0.00  0.00     0.000 C
ATOM      3  C3  IDS F   1      -9.166  45.541 173.0240  0.00  0.00     0.000 C
ATOM      4  C4  IDS F   1      -9.804  44.288 172.3800  0.00  0.00     0.000 C
ATOM      5  C5  IDS F   1     -11.110  43.926 173.0970  0.00  0.00     0.000 C
ATOM      6  O5  IDS F   1     -11.949  45.032 173.1560  0.00  0.00     0.000 O
ATOM      7   S  IDS F   1      -9.581  48.503 171.6170  0.00  0.00     0.000 S
ATOM      8   O  IDS F   1      -8.307  47.878 171.4330  0.00  0.00     0.000 OA
ATOM      9   O  IDS F   1     -10.180  48.840 170.3590  0.00  0.00     0.000 OA
ATOM     10   O  IDS F   1      -9.546  49.609 172.5460  0.00  0.00     0.000 OA
ATOM     11   O  IDS F   1     -10.484  47.394 172.3090  0.00  0.00     0.000 O
ATOM     12   O  IDS F   1      -8.425  45.130 174.1700  0.00  0.00     0.000 O
ATOM     14  HD  IDS F   1      -8.096  44.347 174.3380  0.00  0.00     0.000 HD
ATOM     14   O  IDS F   1     -10.074  44.598 171.0350  0.00  0.00     0.000 O
ATOM     16  HD  IDS F   1      -9.745  43.814 171.2030  0.00  0.00     0.000 HD
ATOM     16   O  IDS F   1     -13.100  42.782 172.4650  0.00  0.00     0.000 OA
ATOM     17   O  IDS F   1     -11.319  41.721 172.1840  0.00  0.00     0.000 OA
ATOM     18   C  IDS F   1     -11.880  42.743 172.5460  0.00  0.00     0.000 C
ENDROOT
BRANCH 1 19
ATOM     19  O4  SGN F   2     -12.449  47.020 174.1000  0.00  0.00     0.000 O
BRANCH 19 23
ATOM     20  C1  SGN F   2     -16.570  47.657 174.0610  0.00  0.00     0.000 C
ATOM     21  C2  SGN F   2     -16.079  46.624 175.0620  0.00  0.00     0.000 C
ATOM     22  C3  SGN F   2     -14.597  46.847 175.3980  0.00  0.00     0.000 C
ATOM     23  C4  SGN F   2     -13.838  46.778 174.0340  0.00  0.00     0.000 C
ATOM     24  C5  SGN F   2     -14.411  47.857 173.1770  0.00  0.00     0.000 C
ATOM     25  O5  SGN F   2     -15.757  47.612 172.9210  0.00  0.00     0.000 O
ATOM     26   N  SGN F   2     -17.001  46.605 176.2230  0.00  0.00     0.000 N
ATOM     28  HD  SGN F   2     -16.908  46.592 177.0840  0.00  0.00     0.000 HD
ATOM     28   S  SGN F   2     -18.407  45.705 176.0820  0.00  0.00     0.000 S
ATOM     29   O  SGN F   2     -19.035  46.074 174.8330  0.00  0.00     0.000 OA
ATOM     30   O  SGN F   2     -17.966  44.329 176.0910  0.00  0.00     0.000 OA
ATOM     31   O  SGN F   2     -19.200  46.002 177.2190  0.00  0.00     0.000 OA
ATOM     32   O  SGN F   2     -14.172  45.801 176.2630  0.00  0.00     0.000 O
ATOM     34  HD  SGN F   2     -14.078  45.788 177.1240  0.00  0.00     0.000 HD
ATOM     34   C  SGN F   2     -13.738  47.948 171.8480  0.00  0.00     0.000 C
ATOM     35   O  SGN F   2     -13.835  46.676 171.3030  0.00  0.00     0.000 O
ATOM     36   S  SGN F   2     -13.473  46.253 169.8840  0.00  0.00     0.000 S
ATOM     37   O  SGN F   2     -12.534  45.173 170.0490  0.00  0.00     0.000 OA
ATOM     38   O  SGN F   2     -14.735  45.867 169.2920  0.00  0.00     0.000 OA
ATOM     39   O  SGN F   2     -12.886  47.415 169.2290  0.00  0.00     0.000 OA
BRANCH 20 40
ATOM     40  O4  IDS F   3     -16.571  48.948 174.6080  0.00  0.00     0.000 O
BRANCH 40 44
ATOM     41  C1  IDS F   3     -17.070  52.403 174.6890  0.00  0.00     0.000 C
ATOM     42  C2  IDS F   3     -17.105  51.606 175.9690  0.00  0.00     0.000 C
ATOM     43  C3  IDS F   3     -18.047  50.345 175.8750  0.00  0.00     0.000 C
ATOM     44  C4  IDS F   3     -17.842  49.585 174.5790  0.00  0.00     0.000 C
ATOM     45  C5  IDS F   3     -17.906  50.565 173.4080  0.00  0.00     0.000 C
ATOM     46  O5  IDS F   3     -16.905  51.548 173.5470  0.00  0.00     0.000 O
ATOM     47   O  IDS F   3     -15.435  50.626 178.5630  0.00  0.00     0.000 OA
ATOM     48   O  IDS F   3     -13.596  51.394 177.2890  0.00  0.00     0.000 OA
ATOM     49   O  IDS F   3     -15.405  52.870 177.8810  0.00  0.00     0.000 OA
ATOM     50   O  IDS F   3     -15.768  51.209 176.2950  0.00  0.00     0.000 O
ATOM     51   S  IDS F   3     -14.996  51.547 177.5790  0.00  0.00     0.000 S
ATOM     52   O  IDS F   3     -19.407  50.763 175.9030  0.00  0.00     0.000 O
ATOM     54  HD  IDS F   3     -18.688  51.103 176.2450  0.00  0.00     0.000 HD
ATOM     54   C  IDS F   3     -17.844  49.925 172.0170  0.00  0.00     0.000 C
ATOM     55   O  IDS F   3     -16.793  49.884 171.3830  0.00  0.00     0.000 OA
ATOM     56   O  IDS F   3     -18.848  49.421 171.4970  0.00  0.00     0.000 OA
BRANCH 41 57
ATOM     57  O4  SGN F   4     -18.232  53.176 174.6100  0.00  0.00     0.000 O
BRANCH 57 61
ATOM     58  C1  SGN F   4     -19.301  56.727 172.8780  0.00  0.00     0.000 C
ATOM     59  C2  SGN F   4     -19.399  55.479 171.9860  0.00  0.00     0.000 C
ATOM     60  C3  SGN F   4     -19.376  54.204 172.8100  0.00  0.00     0.000 C
ATOM     61  C4  SGN F   4     -18.149  54.239 173.7190  0.00  0.00     0.000 C
ATOM     62  C5  SGN F   4     -18.120  55.555 174.5200  0.00  0.00     0.000 C
ATOM     63  O5  SGN F   4     -18.145  56.657 173.6650  0.00  0.00     0.000 O
ATOM     64   N  SGN F   4     -20.577  55.543 171.1420  0.00  0.00     0.000 N
ATOM     66  HD  SGN F   4     -19.879  55.968 171.4290  0.00  0.00     0.000 HD
ATOM     66   S  SGN F   4     -20.442  56.326 169.7180  0.00  0.00     0.000 S
ATOM     67   O  SGN F   4     -20.277  57.730 170.0460  0.00  0.00     0.000 OA
ATOM     68   O  SGN F   4     -19.282  55.790 169.0090  0.00  0.00     0.000 OA
ATOM     69   O  SGN F   4     -21.705  56.053 169.0690  0.00  0.00     0.000 OA
ATOM     70   O  SGN F   4     -19.254  53.079 171.9510  0.00  0.00     0.000 O
ATOM     72  HD  SGN F   4     -18.556  53.504 172.2380  0.00  0.00     0.000 HD
ATOM     72   C  SGN F   4     -16.880  55.747 175.3550  0.00  0.00     0.000 C
ATOM     73   O  SGN F   4     -15.777  55.733 174.4790  0.00  0.00     0.000 O
ATOM     74   S  SGN F   4     -14.443  56.503 174.6960  0.00  0.00     0.000 S
ATOM     75   O  SGN F   4     -14.173  56.551 176.0950  0.00  0.00     0.000 OA
ATOM     76   O  SGN F   4     -13.404  55.780 173.9660  0.00  0.00     0.000 OA
ATOM     77   O  SGN F   4     -14.721  57.796 174.2060  0.00  0.00     0.000 OA
BRANCH 58 78
ATOM     78  O4  IDS F   5     -20.456  56.867 173.6690  0.00  0.00     0.000 O
BRANCH 78 82
ATOM     79  C1  IDS F   5     -23.094  57.962 175.6670  0.00  0.00     0.000 C
ATOM     80  C2  IDS F   5     -23.344  57.396 174.2760  0.00  0.00     0.000 C
ATOM     81  C3  IDS F   5     -22.478  58.082 173.2160  0.00  0.00     0.000 C
ATOM     82  C4  IDS F   5     -21.005  58.153 173.6720  0.00  0.00     0.000 C
ATOM     83  C5  IDS F   5     -20.928  58.737 175.0840  0.00  0.00     0.000 C
ATOM     84  O5  IDS F   5     -21.724  57.983 175.9750  0.00  0.00     0.000 O
ATOM     85   O  IDS F   5     -23.681  59.238 175.7310  0.00  0.00     0.000 OA
ATOM     86   O  IDS F   5     -22.997  56.040 174.2890  0.00  0.00     0.000 O
ATOM     87   S  IDS F   5     -23.409  54.932 173.2650  0.00  0.00     0.000 S
ATOM     88   O  IDS F   5     -23.566  55.570 171.9850  0.00  0.00     0.000 OA
ATOM     89   O  IDS F   5     -22.334  53.966 173.2640  0.00  0.00     0.000 OA
ATOM     90   O  IDS F   5     -24.656  54.414 173.7630  0.00  0.00     0.000 OA
ATOM     91   O  IDS F   5     -22.966  59.396 173.0330  0.00  0.00     0.000 O
ATOM     93  HD  IDS F   5     -22.381  59.853 173.4790  0.00  0.00     0.000 HD
ATOM     93   O  IDS F   5     -19.136  58.253 176.5660  0.00  0.00     0.000 OA
ATOM     94   O  IDS F   5     -18.724  59.647 175.0880  0.00  0.00     0.000 OA
ATOM     95   C  IDS F   5     -19.515  58.887 175.6150  0.00  0.00     0.000 C
ENDBRANCH 78 82
ENDBRANCH 58 78
ENDBRANCH 57 61
ENDBRANCH 41 57
ENDBRANCH 40 44
ENDBRANCH 20 40
ENDBRANCH 19 23
ENDBRANCH 1 19
TORSDOF 8
ENDMDL
MODEL 12
REMARK VINA RESULT:      -6.7      3.082     11.898
FFDIST PL LJ 2322 74 36 -1
ROOT
ATOM      1  C1  IDS F   1     -20.723  56.621 169.1230  0.00  0.00     0.000 C
ATOM      2  C2  IDS F   1     -20.496  56.000 167.7340  0.00  0.00     0.000 C
ATOM      3  C3  IDS F   1     -21.454  54.823 167.4290  0.00  0.00     0.000 C
ATOM      4  C4  IDS F   1     -22.890  55.028 167.9650  0.00  0.00     0.000 C
ATOM      5  C5  IDS F   1     -22.855  55.712 169.3360  0.00  0.00     0.000 C
ATOM      6  O5  IDS F   1     -22.094  56.872 169.2760  0.00  0.00     0.000 O
ATOM      7   S  IDS F   1     -20.208  56.942 165.2180  0.00  0.00     0.000 S
ATOM      8   O  IDS F   1     -20.637  55.671 164.7180  0.00  0.00     0.000 OA
ATOM      9   O  IDS F   1     -20.852  58.018 164.5210  0.00  0.00     0.000 OA
ATOM     10   O  IDS F   1     -18.771  57.078 165.2740  0.00  0.00     0.000 OA
ATOM     11   O  IDS F   1     -20.698  56.973 166.7290  0.00  0.00     0.000 O
ATOM     12   O  IDS F   1     -20.921  53.635 168.0090  0.00  0.00     0.000 O
ATOM     14  HD  IDS F   1     -21.357  52.963 168.3370  0.00  0.00     0.000 HD
ATOM     14   O  IDS F   1     -23.569  55.847 167.0450  0.00  0.00     0.000 O
ATOM     16  HD  IDS F   1     -24.005  55.174 167.3740  0.00  0.00     0.000 HD
ATOM     16   O  IDS F   1     -24.369  57.085 170.5560  0.00  0.00     0.000 OA
ATOM     17   O  IDS F   1     -25.125  55.236 169.9350  0.00  0.00     0.000 OA
ATOM     18   C  IDS F   1     -24.194  56.024 169.9720  0.00  0.00     0.000 C
ENDROOT
BRANCH 1 19
ATOM     19  O4  SGN F   2     -20.053  57.833 169.1890  0.00  0.00     0.000 O
BRANCH 19 23
ATOM     20  C1  SGN F   2     -17.693  57.724 172.6260  0.00  0.00     0.000 C
ATOM     21  C2  SGN F   2     -18.964  58.552 172.7330  0.00  0.00     0.000 C
ATOM     22  C3  SGN F   2     -19.998  58.105 171.6900  0.00  0.00     0.000 C
ATOM     23  C4  SGN F   2     -19.294  58.253 170.3030  0.00  0.00     0.000 C
ATOM     24  C5  SGN F   2     -18.090  57.371 170.3450  0.00  0.00     0.000 C
ATOM     25  O5  SGN F   2     -17.198  57.813 171.3180  0.00  0.00     0.000 O
ATOM     26   N  SGN F   2     -19.429  58.538 174.1400  0.00  0.00     0.000 N
ATOM     28  HD  SGN F   2     -20.191  58.429 174.5360  0.00  0.00     0.000 HD
ATOM     28   S  SGN F   2     -18.713  59.616 175.2050  0.00  0.00     0.000 S
ATOM     29   O  SGN F   2     -17.281  59.490 175.0530  0.00  0.00     0.000 OA
ATOM     30   O  SGN F   2     -19.199  60.914 174.7940  0.00  0.00     0.000 OA
ATOM     31   O  SGN F   2     -19.173  59.278 176.5020  0.00  0.00     0.000 OA
ATOM     32   O  SGN F   2     -21.123  58.971 171.7750  0.00  0.00     0.000 O
ATOM     34  HD  SGN F   2     -21.886  58.862 172.1720  0.00  0.00     0.000 HD
ATOM     34   C  SGN F   2     -17.340  57.368 169.0550  0.00  0.00     0.000 C
ATOM     35   O  SGN F   2     -17.061  58.701 168.7920  0.00  0.00     0.000 O
ATOM     36   S  SGN F   2     -16.159  59.253 167.6940  0.00  0.00     0.000 S
ATOM     37   O  SGN F   2     -16.989  60.178 166.9650  0.00  0.00     0.000 OA
ATOM     38   O  SGN F   2     -15.059  59.865 168.4070  0.00  0.00     0.000 OA
ATOM     39   O  SGN F   2     -15.731  58.119 166.8830  0.00  0.00     0.000 OA
BRANCH 20 40
ATOM     40  O4  IDS F   3     -17.918  56.384 172.9720  0.00  0.00     0.000 O
BRANCH 40 44
ATOM     41  C1  IDS F   3     -16.543  53.354 174.0290  0.00  0.00     0.000 C
ATOM     42  C2  IDS F   3     -15.676  54.584 173.9380  0.00  0.00     0.000 C
ATOM     43  C3  IDS F   3     -15.812  55.324 172.5530  0.00  0.00     0.000 C
ATOM     44  C4  IDS F   3     -17.262  55.452 172.1240  0.00  0.00     0.000 C
ATOM     45  C5  IDS F   3     -17.937  54.085 172.2300  0.00  0.00     0.000 C
ATOM     46  O5  IDS F   3     -17.873  53.618 173.5590  0.00  0.00     0.000 O
ATOM     47   O  IDS F   3     -14.364  57.065 175.5510  0.00  0.00     0.000 OA
ATOM     48   O  IDS F   3     -15.911  56.404 177.2150  0.00  0.00     0.000 OA
ATOM     49   O  IDS F   3     -14.241  54.877 176.3870  0.00  0.00     0.000 OA
ATOM     50   O  IDS F   3     -16.021  55.466 175.0120  0.00  0.00     0.000 O
ATOM     51   S  IDS F   3     -15.085  55.982 176.1150  0.00  0.00     0.000 S
ATOM     52   O  IDS F   3     -15.144  54.574 171.5440  0.00  0.00     0.000 O
ATOM     54  HD  IDS F   3     -15.006  54.656 172.3950  0.00  0.00     0.000 HD
ATOM     54   C  IDS F   3     -19.376  54.027 171.7070  0.00  0.00     0.000 C
ATOM     55   O  IDS F   3     -20.335  54.096 172.4730  0.00  0.00     0.000 OA
ATOM     56   O  IDS F   3     -19.616  53.920 170.4970  0.00  0.00     0.000 OA
BRANCH 41 57
ATOM     57  O4  SGN F   4     -15.926  52.317 173.3240  0.00  0.00     0.000 O
BRANCH 57 61
ATOM     58  C1  SGN F   4     -15.277  48.320 173.9180  0.00  0.00     0.000 C
ATOM     59  C2  SGN F   4     -16.625  48.703 173.2880  0.00  0.00     0.000 C
ATOM     60  C3  SGN F   4     -16.604  50.122 172.7490  0.00  0.00     0.000 C
ATOM     61  C4  SGN F   4     -16.138  51.055 173.8660  0.00  0.00     0.000 C
ATOM     62  C5  SGN F   4     -14.812  50.545 174.4640  0.00  0.00     0.000 C
ATOM     63  O5  SGN F   4     -14.946  49.236 174.9250  0.00  0.00     0.000 O
ATOM     64   N  SGN F   4     -17.000  47.751 172.2600  0.00  0.00     0.000 N
ATOM     66  HD  SGN F   4     -16.717  47.852 173.0720  0.00  0.00     0.000 HD
ATOM     66   S  SGN F   4     -17.806  46.413 172.7280  0.00  0.00     0.000 S
ATOM     67   O  SGN F   4     -16.858  45.619 173.4880  0.00  0.00     0.000 OA
ATOM     68   O  SGN F   4     -18.948  46.828 173.5400  0.00  0.00     0.000 OA
ATOM     69   O  SGN F   4     -18.170  45.791 171.4760  0.00  0.00     0.000 OA
ATOM     70   O  SGN F   4     -17.916  50.512 172.3710  0.00  0.00     0.000 O
ATOM     72  HD  SGN F   4     -17.633  50.612 173.1830  0.00  0.00     0.000 HD
ATOM     72   C  SGN F   4     -14.329  51.324 175.6590  0.00  0.00     0.000 C
ATOM     73   O  SGN F   4     -15.329  51.237 176.6490  0.00  0.00     0.000 O
ATOM     74   S  SGN F   4     -15.082  51.273 178.1850  0.00  0.00     0.000 S
ATOM     75   O  SGN F   4     -13.971  52.128 178.4430  0.00  0.00     0.000 OA
ATOM     76   O  SGN F   4     -16.308  51.770 178.8060  0.00  0.00     0.000 OA
ATOM     77   O  SGN F   4     -14.757  49.937 178.5010  0.00  0.00     0.000 OA
BRANCH 58 78
ATOM     78  O4  IDS F   5     -14.270  48.247 172.9380  0.00  0.00     0.000 O
BRANCH 78 82
ATOM     79  C1  IDS F   5     -11.450  47.610 170.9910  0.00  0.00     0.000 C
ATOM     80  C2  IDS F   5     -12.814  47.056 170.6040  0.00  0.00     0.000 C
ATOM     81  C3  IDS F   5     -13.476  46.308 171.7620  0.00  0.00     0.000 C
ATOM     82  C4  IDS F   5     -13.420  47.143 173.0590  0.00  0.00     0.000 C
ATOM     83  C5  IDS F   5     -11.989  47.627 173.3020  0.00  0.00     0.000 C
ATOM     84  O5  IDS F   5     -11.515  48.349 172.1840  0.00  0.00     0.000 O
ATOM     85   O  IDS F   5     -10.548  46.535 171.0700  0.00  0.00     0.000 OA
ATOM     86   O  IDS F   5     -13.643  48.134 170.2700  0.00  0.00     0.000 O
ATOM     87   S  IDS F   5     -14.980  48.103 169.4590  0.00  0.00     0.000 S
ATOM     88   O  IDS F   5     -15.604  46.831 169.7120  0.00  0.00     0.000 OA
ATOM     89   O  IDS F   5     -15.773  49.206 169.9500  0.00  0.00     0.000 OA
ATOM     90   O  IDS F   5     -14.581  48.240 168.0830  0.00  0.00     0.000 OA
ATOM     91   O  IDS F   5     -12.773  45.098 171.9650  0.00  0.00     0.000 O
ATOM     93  HD  IDS F   5     -12.300  45.297 172.6630  0.00  0.00     0.000 HD
ATOM     93   O  IDS F   5     -11.502  49.592 174.5450  0.00  0.00     0.000 OA
ATOM     94   O  IDS F   5     -11.995  47.920 175.6680  0.00  0.00     0.000 OA
ATOM     95   C  IDS F   5     -11.815  48.429 174.5780  0.00  0.00     0.000 C
ENDBRANCH 78 82
ENDBRANCH 58 78
ENDBRANCH 57 61
ENDBRANCH 41 57
ENDBRANCH 40 44
ENDBRANCH 20 40
ENDBRANCH 19 23
ENDBRANCH 1 19
TORSDOF 8
ENDMDL
MODEL 13
REMARK VINA RESULT:      -6.7      3.737     11.646
FFDIST PL LJ 2322 74 36 -1
ROOT
ATOM      1  C1  IDS F   1     -15.536  57.627 169.5680  0.00  0.00     0.000 C
ATOM      2  C2  IDS F   1     -16.779  58.015 168.7500  0.00  0.00     0.000 C
ATOM      3  C3  IDS F   1     -16.484  59.076 167.6620  0.00  0.00     0.000 C
ATOM      4  C4  IDS F   1     -15.117  58.896 166.9630  0.00  0.00     0.000 C
ATOM      5  C5  IDS F   1     -14.054  58.455 167.9760  0.00  0.00     0.000 C
ATOM      6  O5  IDS F   1     -14.492  57.338 168.6770  0.00  0.00     0.000 O
ATOM      7   S  IDS F   1     -18.753  56.679 167.4780  0.00  0.00     0.000 S
ATOM      8   O  IDS F   1     -18.962  57.826 166.6470  0.00  0.00     0.000 OA
ATOM      9   O  IDS F   1     -18.744  55.472 166.7040  0.00  0.00     0.000 OA
ATOM     10   O  IDS F   1     -19.648  56.624 168.6100  0.00  0.00     0.000 OA
ATOM     11   O  IDS F   1     -17.301  56.879 168.0920  0.00  0.00     0.000 O
ATOM     12   O  IDS F   1     -16.517  60.369 168.2610  0.00  0.00     0.000 O
ATOM     14  HD  IDS F   1     -16.048  61.066 168.0490  0.00  0.00     0.000 HD
ATOM     14   O  IDS F   1     -15.275  57.902 165.9800  0.00  0.00     0.000 O
ATOM     16  HD  IDS F   1     -14.806  58.599 165.7680  0.00  0.00     0.000 HD
ATOM     16   O  IDS F   1     -12.015  57.235 167.8320  0.00  0.00     0.000 OA
ATOM     17   O  IDS F   1     -12.153  58.915 166.5930  0.00  0.00     0.000 OA
ATOM     18   C  IDS F   1     -12.666  58.189 167.4300  0.00  0.00     0.000 C
ENDROOT
BRANCH 1 19
ATOM     19  O4  SGN F   2     -15.814  56.476 170.2910  0.00  0.00     0.000 O
BRANCH 19 23
ATOM     20  C1  SGN F   2     -15.673  54.968 174.1770  0.00  0.00     0.000 C
ATOM     21  C2  SGN F   2     -16.871  55.850 173.8620  0.00  0.00     0.000 C
ATOM     22  C3  SGN F   2     -17.137  55.894 172.3500  0.00  0.00     0.000 C
ATOM     23  C4  SGN F   2     -15.815  56.414 171.7010  0.00  0.00     0.000 C
ATOM     24  C5  SGN F   2     -14.748  55.440 172.0780  0.00  0.00     0.000 C
ATOM     25  O5  SGN F   2     -14.564  55.430 173.4570  0.00  0.00     0.000 O
ATOM     26   N  SGN F   2     -18.016  55.421 174.7000  0.00  0.00     0.000 N
ATOM     28  HD  SGN F   2     -18.859  55.273 174.5630  0.00  0.00     0.000 HD
ATOM     28   S  SGN F   2     -18.086  55.996 176.2720  0.00  0.00     0.000 S
ATOM     29   O  SGN F   2     -16.792  55.769 176.8750  0.00  0.00     0.000 OA
ATOM     30   O  SGN F   2     -18.391  57.403 176.1340  0.00  0.00     0.000 OA
ATOM     31   O  SGN F   2     -19.139  55.300 176.9170  0.00  0.00     0.000 OA
ATOM     32   O  SGN F   2     -18.205  56.802 172.1100  0.00  0.00     0.000 O
ATOM     34  HD  SGN F   2     -19.048  56.654 171.9730  0.00  0.00     0.000 HD
ATOM     34   C  SGN F   2     -13.426  55.781 171.4770  0.00  0.00     0.000 C
ATOM     35   O  SGN F   2     -13.171  57.086 171.8740  0.00  0.00     0.000 O
ATOM     36   S  SGN F   2     -11.874  57.867 171.6910  0.00  0.00     0.000 S
ATOM     37   O  SGN F   2     -12.263  59.068 170.9970  0.00  0.00     0.000 OA
ATOM     38   O  SGN F   2     -11.392  58.081 173.0380  0.00  0.00     0.000 OA
ATOM     39   O  SGN F   2     -10.977  57.027 170.9070  0.00  0.00     0.000 OA
BRANCH 20 40
ATOM     40  O4  IDS F   3     -15.927  53.623 173.8710  0.00  0.00     0.000 O
BRANCH 40 44
ATOM     41  C1  IDS F   3     -15.440  50.300 174.8240  0.00  0.00     0.000 C
ATOM     42  C2  IDS F   3     -14.937  51.417 175.7030  0.00  0.00     0.000 C
ATOM     43  C3  IDS F   3     -14.093  52.485 174.9070  0.00  0.00     0.000 C
ATOM     44  C4  IDS F   3     -14.757  52.864 173.5970  0.00  0.00     0.000 C
ATOM     45  C5  IDS F   3     -15.127  51.591 172.8370  0.00  0.00     0.000 C
ATOM     46  O5  IDS F   3     -16.010  50.808 173.6090  0.00  0.00     0.000 O
ATOM     47   O  IDS F   3     -15.538  53.276 178.2840  0.00  0.00     0.000 OA
ATOM     48   O  IDS F   3     -17.718  52.392 178.0310  0.00  0.00     0.000 OA
ATOM     49   O  IDS F   3     -15.820  50.949 178.3760  0.00  0.00     0.000 OA
ATOM     50   O  IDS F   3     -16.060  52.040 176.3360  0.00  0.00     0.000 O
ATOM     51   S  IDS F   3     -16.309  52.169 177.8460  0.00  0.00     0.000 S
ATOM     52   O  IDS F   3     -12.817  51.940 174.5850  0.00  0.00     0.000 O
ATOM     54  HD  IDS F   3     -13.362  51.795 175.2430  0.00  0.00     0.000 HD
ATOM     54   C  IDS F   3     -15.693  51.813 171.4300  0.00  0.00     0.000 C
ATOM     55   O  IDS F   3     -16.904  51.792 171.2220  0.00  0.00     0.000 OA
ATOM     56   O  IDS F   3     -14.949  52.032 170.4660  0.00  0.00     0.000 OA
BRANCH 41 57
ATOM     57  O4  SGN F   4     -14.389  49.409 174.5870  0.00  0.00     0.000 O
BRANCH 57 61
ATOM     58  C1  SGN F   4     -14.216  45.376 173.9120  0.00  0.00     0.000 C
ATOM     59  C2  SGN F   4     -14.054  46.279 172.6790  0.00  0.00     0.000 C
ATOM     60  C3  SGN F   4     -13.733  47.709 173.0750  0.00  0.00     0.000 C
ATOM     61  C4  SGN F   4     -14.789  48.182 174.0730  0.00  0.00     0.000 C
ATOM     62  C5  SGN F   4     -14.909  47.176 175.2330  0.00  0.00     0.000 C
ATOM     63  O5  SGN F   4     -15.204  45.898 174.7560  0.00  0.00     0.000 O
ATOM     64   N  SGN F   4     -13.053  45.741 171.7770  0.00  0.00     0.000 N
ATOM     66  HD  SGN F   4     -13.757  45.566 172.2500  0.00  0.00     0.000 HD
ATOM     66   S  SGN F   4     -13.541  44.638 170.6800  0.00  0.00     0.000 S
ATOM     67   O  SGN F   4     -13.884  43.447 171.4330  0.00  0.00     0.000 OA
ATOM     68   O  SGN F   4     -14.693  45.184 169.9650  0.00  0.00     0.000 OA
ATOM     69   O  SGN F   4     -12.370  44.454 169.8530  0.00  0.00     0.000 OA
ATOM     70   O  SGN F   4     -13.800  48.550 171.9320  0.00  0.00     0.000 O
ATOM     72  HD  SGN F   4     -14.505  48.375 172.4050  0.00  0.00     0.000 HD
ATOM     72   C  SGN F   4     -16.014  47.483 176.2100  0.00  0.00     0.000 C
ATOM     73   O  SGN F   4     -17.225  47.480 175.4890  0.00  0.00     0.000 O
ATOM     74   S  SGN F   4     -18.617  47.093 176.0660  0.00  0.00     0.000 S
ATOM     75   O  SGN F   4     -18.665  47.493 177.4340  0.00  0.00     0.000 OA
ATOM     76   O  SGN F   4     -19.624  47.783 175.2620  0.00  0.00     0.000 OA
ATOM     77   O  SGN F   4     -18.640  45.687 175.9660  0.00  0.00     0.000 OA
BRANCH 58 78
ATOM     78  O4  IDS F   5     -12.990  45.226 174.5860  0.00  0.00     0.000 O
BRANCH 78 82
ATOM     79  C1  IDS F   5     -10.220  44.222 176.4480  0.00  0.00     0.000 C
ATOM     80  C2  IDS F   5     -10.212  44.152 174.9280  0.00  0.00     0.000 C
ATOM     81  C3  IDS F   5     -11.433  43.408 174.3840  0.00  0.00     0.000 C
ATOM     82  C4  IDS F   5     -12.731  43.929 175.0380  0.00  0.00     0.000 C
ATOM     83  C5  IDS F   5     -12.573  43.942 176.5600  0.00  0.00     0.000 C
ATOM     84  O5  IDS F   5     -11.446  44.705 176.9350  0.00  0.00     0.000 O
ATOM     85   O  IDS F   5      -9.907  42.945 176.9460  0.00  0.00     0.000 OA
ATOM     86   O  IDS F   5     -10.261  45.460 174.4310  0.00  0.00     0.000 O
ATOM     87   S  IDS F   5      -9.898  45.957 172.9930  0.00  0.00     0.000 S
ATOM     88   O  IDS F   5     -10.196  44.883 172.0820  0.00  0.00     0.000 OA
ATOM     89   O  IDS F   5     -10.720  47.120 172.7510  0.00  0.00     0.000 OA
ATOM     90   O  IDS F   5      -8.488  46.241 173.0450  0.00  0.00     0.000 OA
ATOM     91   O  IDS F   5     -11.284  42.035 174.6890  0.00  0.00     0.000 O
ATOM     93  HD  IDS F   5     -11.821  41.957 175.3640  0.00  0.00     0.000 HD
ATOM     93   O  IDS F   5     -13.806  45.417 177.9550  0.00  0.00     0.000 OA
ATOM     94   O  IDS F   5     -14.845  43.763 177.2600  0.00  0.00     0.000 OA
ATOM     95   C  IDS F   5     -13.812  44.403 177.3050  0.00  0.00     0.000 C
ENDBRANCH 78 82
ENDBRANCH 58 78
ENDBRANCH 57 61
ENDBRANCH 41 57
ENDBRANCH 40 44
ENDBRANCH 20 40
ENDBRANCH 19 23
ENDBRANCH 1 19
TORSDOF 8
ENDMDL
MODEL 14
REMARK VINA RESULT:      -6.6      3.621     12.904
FFDIST PL LJ 2322 74 36 -1
ROOT
ATOM      1  C1  IDS F   1     -20.812  47.453 175.6870  0.00  0.00     0.000 C
ATOM      2  C2  IDS F   1     -20.433  46.138 174.9860  0.00  0.00     0.000 C
ATOM      3  C3  IDS F   1     -20.640  44.890 175.8780  0.00  0.00     0.000 C
ATOM      4  C4  IDS F   1     -21.899  44.960 176.7720  0.00  0.00     0.000 C
ATOM      5  C5  IDS F   1     -22.094  46.383 177.3080  0.00  0.00     0.000 C
ATOM      6  O5  IDS F   1     -22.082  47.297 176.2620  0.00  0.00     0.000 O
ATOM      7   S  IDS F   1     -20.951  45.004 172.5890  0.00  0.00     0.000 S
ATOM      8   O  IDS F   1     -20.684  43.721 173.1640  0.00  0.00     0.000 OA
ATOM      9   O  IDS F   1     -22.137  44.974 171.7830  0.00  0.00     0.000 OA
ATOM     10   O  IDS F   1     -19.812  45.572 171.9060  0.00  0.00     0.000 OA
ATOM     11   O  IDS F   1     -21.225  45.959 173.8290  0.00  0.00     0.000 O
ATOM     12   O  IDS F   1     -19.499  44.732 176.7180  0.00  0.00     0.000 O
ATOM     14  HD  IDS F   1     -19.471  44.415 177.5230  0.00  0.00     0.000 HD
ATOM     14   O  IDS F   1     -23.001  44.599 175.9760  0.00  0.00     0.000 O
ATOM     16  HD  IDS F   1     -22.973  44.282 176.7810  0.00  0.00     0.000 HD
ATOM     16   O  IDS F   1     -23.973  47.648 178.0390  0.00  0.00     0.000 OA
ATOM     17   O  IDS F   1     -23.684  45.817 179.0080  0.00  0.00     0.000 OA
ATOM     18   C  IDS F   1     -23.320  46.622 178.1660  0.00  0.00     0.000 C
ENDROOT
BRANCH 1 19
ATOM     19  O4  SGN F   2     -20.890  48.463 174.7390  0.00  0.00     0.000 O
BRANCH 19 23
ATOM     20  C1  SGN F   2     -17.309  50.519 174.1590  0.00  0.00     0.000 C
ATOM     21  C2  SGN F   2     -18.029  50.818 175.4640  0.00  0.00     0.000 C
ATOM     22  C3  SGN F   2     -18.979  49.671 175.8410  0.00  0.00     0.000 C
ATOM     23  C4  SGN F   2     -19.956  49.515 174.6320  0.00  0.00     0.000 C
ATOM     24  C5  SGN F   2     -19.110  49.204 173.4420  0.00  0.00     0.000 C
ATOM     25  O5  SGN F   2     -18.259  50.268 173.1600  0.00  0.00     0.000 O
ATOM     26   N  SGN F   2     -17.026  51.180 176.4940  0.00  0.00     0.000 N
ATOM     28  HD  SGN F   2     -16.890  50.970 177.3230  0.00  0.00     0.000 HD
ATOM     28   S  SGN F   2     -16.470  52.761 176.5120  0.00  0.00     0.000 S
ATOM     29   O  SGN F   2     -16.082  53.101 175.1620  0.00  0.00     0.000 OA
ATOM     30   O  SGN F   2     -17.596  53.540 176.9760  0.00  0.00     0.000 OA
ATOM     31   O  SGN F   2     -15.395  52.806 177.4350  0.00  0.00     0.000 OA
ATOM     32   O  SGN F   2     -19.689  50.046 177.0150  0.00  0.00     0.000 O
ATOM     34  HD  SGN F   2     -19.553  49.836 177.8440  0.00  0.00     0.000 HD
ATOM     34   C  SGN F   2     -19.919  48.972 172.2110  0.00  0.00     0.000 C
ATOM     35   O  SGN F   2     -20.703  50.108 172.0710  0.00  0.00     0.000 O
ATOM     36   S  SGN F   2     -21.584  50.477 170.8820  0.00  0.00     0.000 S
ATOM     37   O  SGN F   2     -22.892  50.695 171.4470  0.00  0.00     0.000 OA
ATOM     38   O  SGN F   2     -20.963  51.662 170.3300  0.00  0.00     0.000 OA
ATOM     39   O  SGN F   2     -21.549  49.351 169.9580  0.00  0.00     0.000 OA
BRANCH 20 40
ATOM     40  O4  IDS F   3     -16.437  49.429 174.2870  0.00  0.00     0.000 O
BRANCH 40 44
ATOM     41  C1  IDS F   3     -13.874  47.080 173.9670  0.00  0.00     0.000 C
ATOM     42  C2  IDS F   3     -14.131  47.738 175.2990  0.00  0.00     0.000 C
ATOM     43  C3  IDS F   3     -14.224  49.308 175.1940  0.00  0.00     0.000 C
ATOM     44  C4  IDS F   3     -15.077  49.744 174.0180  0.00  0.00     0.000 C
ATOM     45  C5  IDS F   3     -14.610  49.009 172.7620  0.00  0.00     0.000 C
ATOM     46  O5  IDS F   3     -14.729  47.616 172.9460  0.00  0.00     0.000 O
ATOM     47   O  IDS F   3     -15.575  47.476 178.1840  0.00  0.00     0.000 OA
ATOM     48   O  IDS F   3     -16.704  45.693 177.1160  0.00  0.00     0.000 OA
ATOM     49   O  IDS F   3     -14.303  45.713 177.3030  0.00  0.00     0.000 OA
ATOM     50   O  IDS F   3     -15.340  47.200 175.8470  0.00  0.00     0.000 O
ATOM     51   S  IDS F   3     -15.496  46.470 177.1890  0.00  0.00     0.000 S
ATOM     52   O  IDS F   3     -12.924  49.851 174.9890  0.00  0.00     0.000 O
ATOM     54  HD  IDS F   3     -13.199  49.137 175.3960  0.00  0.00     0.000 HD
ATOM     54   C  IDS F   3     -15.296  49.441 171.4610  0.00  0.00     0.000 C
ATOM     55   O  IDS F   3     -16.227  48.794 170.9880  0.00  0.00     0.000 OA
ATOM     56   O  IDS F   3     -14.938  50.459 170.8550  0.00  0.00     0.000 OA
BRANCH 41 57
ATOM     57  O4  SGN F   4     -12.519  47.219 173.6520  0.00  0.00     0.000 O
BRANCH 57 61
ATOM     58  C1  SGN F   4     -10.167  45.708 170.6630  0.00  0.00     0.000 C
ATOM     59  C2  SGN F   4     -10.578  47.183 170.5240  0.00  0.00     0.000 C
ATOM     60  C3  SGN F   4     -11.088  47.744 171.8400  0.00  0.00     0.000 C
ATOM     61  C4  SGN F   4     -12.191  46.824 172.3610  0.00  0.00     0.000 C
ATOM     62  C5  SGN F   4     -11.691  45.367 172.4030  0.00  0.00     0.000 C
ATOM     63  O5  SGN F   4     -11.247  44.958 171.1450  0.00  0.00     0.000 O
ATOM     64   N  SGN F   4      -9.481  47.974 170.0000  0.00  0.00     0.000 N
ATOM     66  HD  SGN F   4      -9.953  47.254 169.9050  0.00  0.00     0.000 HD
ATOM     66   S  SGN F   4      -9.318  48.057 168.3800  0.00  0.00     0.000 S
ATOM     67   O  SGN F   4      -8.914  46.731 167.9490  0.00  0.00     0.000 OA
ATOM     68   O  SGN F   4     -10.605  48.450 167.8100  0.00  0.00     0.000 OA
ATOM     69   O  SGN F   4      -8.272  49.039 168.2030  0.00  0.00     0.000 OA
ATOM     70   O  SGN F   4     -11.653  49.029 171.6270  0.00  0.00     0.000 O
ATOM     72  HD  SGN F   4     -12.124  48.309 171.5320  0.00  0.00     0.000 HD
ATOM     72   C  SGN F   4     -12.744  44.359 172.7830  0.00  0.00     0.000 C
ATOM     73   O  SGN F   4     -13.777  44.450 171.8280  0.00  0.00     0.000 O
ATOM     74   S  SGN F   4     -14.699  43.278 171.3830  0.00  0.00     0.000 S
ATOM     75   O  SGN F   4     -14.909  42.420 172.5020  0.00  0.00     0.000 OA
ATOM     76   O  SGN F   4     -15.948  43.870 170.9080  0.00  0.00     0.000 OA
ATOM     77   O  SGN F   4     -13.942  42.617 170.3930  0.00  0.00     0.000 OA
BRANCH 58 78
ATOM     78  O4  IDS F   5      -9.039  45.580 171.4940  0.00  0.00     0.000 O
BRANCH 78 82
ATOM     79  C1  IDS F   5      -6.145  44.625 173.1870  0.00  0.00     0.000 C
ATOM     80  C2  IDS F   5      -6.137  45.797 172.2160  0.00  0.00     0.000 C
ATOM     81  C3  IDS F   5      -6.729  45.417 170.8560  0.00  0.00     0.000 C
ATOM     82  C4  IDS F   5      -8.074  44.681 171.0290  0.00  0.00     0.000 C
ATOM     83  C5  IDS F   5      -7.914  43.540 172.0360  0.00  0.00     0.000 C
ATOM     84  O5  IDS F   5      -7.415  44.029 173.2630  0.00  0.00     0.000 O
ATOM     85   O  IDS F   5      -5.148  43.719 172.7860  0.00  0.00     0.000 OA
ATOM     86   O  IDS F   5      -6.937  46.814 172.7530  0.00  0.00     0.000 O
ATOM     87   S  IDS F   5      -6.959  48.327 172.3620  0.00  0.00     0.000 S
ATOM     88   O  IDS F   5      -6.613  48.414 170.9670  0.00  0.00     0.000 OA
ATOM     89   O  IDS F   5      -8.304  48.789 172.6190  0.00  0.00     0.000 OA
ATOM     90   O  IDS F   5      -5.962  48.940 173.2000  0.00  0.00     0.000 OA
ATOM     91   O  IDS F   5      -5.815  44.557 170.2040  0.00  0.00     0.000 O
ATOM     93  HD  IDS F   5      -6.194  43.789 170.3290  0.00  0.00     0.000 HD
ATOM     93   O  IDS F   5      -9.733  42.709 173.3180  0.00  0.00     0.000 OA
ATOM     94   O  IDS F   5      -9.660  42.069 171.3480  0.00  0.00     0.000 OA
ATOM     95   C  IDS F   5      -9.175  42.724 172.2510  0.00  0.00     0.000 C
ENDBRANCH 78 82
ENDBRANCH 58 78
ENDBRANCH 57 61
ENDBRANCH 41 57
ENDBRANCH 40 44
ENDBRANCH 20 40
ENDBRANCH 19 23
ENDBRANCH 1 19
TORSDOF 8
ENDMDL
MODEL 15
REMARK VINA RESULT:      -6.6      3.686     11.875
FFDIST PL LJ 2322 74 36 -1
ROOT
ATOM      1  C1  IDS F   1     -18.460  55.958 171.8940  0.00  0.00     0.000 C
ATOM      2  C2  IDS F   1     -17.364  56.409 172.8740  0.00  0.00     0.000 C
ATOM      3  C3  IDS F   1     -16.055  56.839 172.1680  0.00  0.00     0.000 C
ATOM      4  C4  IDS F   1     -16.279  57.606 170.8430  0.00  0.00     0.000 C
ATOM      5  C5  IDS F   1     -17.458  57.003 170.0710  0.00  0.00     0.000 C
ATOM      6  O5  IDS F   1     -18.580  56.928 170.8880  0.00  0.00     0.000 O
ATOM      7   S  IDS F   1     -17.234  58.072 174.9990  0.00  0.00     0.000 S
ATOM      8   O  IDS F   1     -15.827  58.211 174.7760  0.00  0.00     0.000 OA
ATOM      9   O  IDS F   1     -17.846  59.343 175.2570  0.00  0.00     0.000 OA
ATOM     10   O  IDS F   1     -17.559  57.072 175.9900  0.00  0.00     0.000 OA
ATOM     11   O  IDS F   1     -17.813  57.517 173.6280  0.00  0.00     0.000 O
ATOM     12   O  IDS F   1     -15.280  55.676 171.8890  0.00  0.00     0.000 O
ATOM     14  HD  IDS F   1     -14.750  55.538 171.2190  0.00  0.00     0.000 HD
ATOM     14   O  IDS F   1     -16.564  58.942 171.1740  0.00  0.00     0.000 O
ATOM     16  HD  IDS F   1     -16.034  58.805 170.5040  0.00  0.00     0.000 HD
ATOM     16   O  IDS F   1     -19.008  57.841 168.4700  0.00  0.00     0.000 OA
ATOM     17   O  IDS F   1     -16.987  58.072 167.9800  0.00  0.00     0.000 OA
ATOM     18   C  IDS F   1     -17.832  57.681 168.7690  0.00  0.00     0.000 C
ENDROOT
BRANCH 1 19
ATOM     19  O4  SGN F   2     -19.669  55.890 172.5700  0.00  0.00     0.000 O
BRANCH 19 23
ATOM     20  C1  SGN F   2     -20.752  51.952 173.4140  0.00  0.00     0.000 C
ATOM     21  C2  SGN F   2     -21.045  52.420 171.9970  0.00  0.00     0.000 C
ATOM     22  C3  SGN F   2     -20.153  53.612 171.6190  0.00  0.00     0.000 C
ATOM     23  C4  SGN F   2     -20.437  54.712 172.6920  0.00  0.00     0.000 C
ATOM     24  C5  SGN F   2     -20.082  54.115 174.0130  0.00  0.00     0.000 C
ATOM     25  O5  SGN F   2     -20.909  53.031 174.2930  0.00  0.00     0.000 O
ATOM     26   N  SGN F   2     -20.975  51.255 171.0830  0.00  0.00     0.000 N
ATOM     28  HD  SGN F   2     -20.621  51.100 170.3080  0.00  0.00     0.000 HD
ATOM     28   S  SGN F   2     -22.331  50.276 170.9710  0.00  0.00     0.000 S
ATOM     29   O  SGN F   2     -22.742  49.948 172.3170  0.00  0.00     0.000 OA
ATOM     30   O  SGN F   2     -23.309  51.081 170.2760  0.00  0.00     0.000 OA
ATOM     31   O  SGN F   2     -21.955  49.143 170.2060  0.00  0.00     0.000 OA
ATOM     32   O  SGN F   2     -20.534  54.063 170.3250  0.00  0.00     0.000 O
ATOM     34  HD  SGN F   2     -20.180  53.908 169.5500  0.00  0.00     0.000 HD
ATOM     34   C  SGN F   2     -20.252  55.078 175.1390  0.00  0.00     0.000 C
ATOM     35   O  SGN F   2     -21.565  55.518 175.0470  0.00  0.00     0.000 O
ATOM     36   S  SGN F   2     -22.320  56.376 176.0560  0.00  0.00     0.000 S
ATOM     37   O  SGN F   2     -22.798  57.504 175.2970  0.00  0.00     0.000 OA
ATOM     38   O  SGN F   2     -23.361  55.505 176.5580  0.00  0.00     0.000 OA
ATOM     39   O  SGN F   2     -21.368  56.755 177.0920  0.00  0.00     0.000 OA
BRANCH 20 40
ATOM     40  O4  IDS F   3     -19.461  51.416 173.5250  0.00  0.00     0.000 O
BRANCH 40 44
ATOM     41  C1  IDS F   3     -16.889  49.244 174.4520  0.00  0.00     0.000 C
ATOM     42  C2  IDS F   3     -16.806  49.998 173.1490  0.00  0.00     0.000 C
ATOM     43  C3  IDS F   3     -18.119  49.868 172.2860  0.00  0.00     0.000 C
ATOM     44  C4  IDS F   3     -19.367  50.054 173.1280  0.00  0.00     0.000 C
ATOM     45  C5  IDS F   3     -19.276  49.156 174.3610  0.00  0.00     0.000 C
ATOM     46  O5  IDS F   3     -18.136  49.492 175.1190  0.00  0.00     0.000 O
ATOM     47   O  IDS F   3     -15.622  52.597 171.6250  0.00  0.00     0.000 OA
ATOM     48   O  IDS F   3     -15.179  53.312 173.8370  0.00  0.00     0.000 OA
ATOM     49   O  IDS F   3     -14.252  51.259 172.9820  0.00  0.00     0.000 OA
ATOM     50   O  IDS F   3     -16.530  51.373 173.4350  0.00  0.00     0.000 O
ATOM     51   S  IDS F   3     -15.322  52.188 172.9500  0.00  0.00     0.000 S
ATOM     52   O  IDS F   3     -18.190  48.563 171.7190  0.00  0.00     0.000 O
ATOM     54  HD  IDS F   3     -17.520  49.064 171.9430  0.00  0.00     0.000 HD
ATOM     54   C  IDS F   3     -20.527  49.139 175.2480  0.00  0.00     0.000 C
ATOM     55   O  IDS F   3     -20.594  49.824 176.2650  0.00  0.00     0.000 OA
ATOM     56   O  IDS F   3     -21.509  48.443 174.9580  0.00  0.00     0.000 OA
BRANCH 41 57
ATOM     57  O4  SGN F   4     -16.683  47.885 174.1980  0.00  0.00     0.000 O
BRANCH 57 61
ATOM     58  C1  SGN F   4     -15.261  44.787 176.4620  0.00  0.00     0.000 C
ATOM     59  C2  SGN F   4     -16.784  44.837 176.2600  0.00  0.00     0.000 C
ATOM     60  C3  SGN F   4     -17.161  45.753 175.1090  0.00  0.00     0.000 C
ATOM     61  C4  SGN F   4     -16.507  47.113 175.3400  0.00  0.00     0.000 C
ATOM     62  C5  SGN F   4     -14.996  46.939 175.5900  0.00  0.00     0.000 C
ATOM     63  O5  SGN F   4     -14.766  46.081 176.6650  0.00  0.00     0.000 O
ATOM     64   N  SGN F   4     -17.321  43.503 176.0750  0.00  0.00     0.000 N
ATOM     66  HD  SGN F   4     -16.807  44.006 176.5570  0.00  0.00     0.000 HD
ATOM     66   S  SGN F   4     -17.710  42.654 177.4120  0.00  0.00     0.000 S
ATOM     67   O  SGN F   4     -16.455  42.342 178.0690  0.00  0.00     0.000 OA
ATOM     68   O  SGN F   4     -18.573  43.487 178.2470  0.00  0.00     0.000 OA
ATOM     69   O  SGN F   4     -18.363  41.479 176.8790  0.00  0.00     0.000 OA
ATOM     70   O  SGN F   4     -18.569  45.940 175.0880  0.00  0.00     0.000 O
ATOM     72  HD  SGN F   4     -18.055  46.443 175.5700  0.00  0.00     0.000 HD
ATOM     72   C  SGN F   4     -14.276  48.211 175.9550  0.00  0.00     0.000 C
ATOM     73   O  SGN F   4     -14.870  48.707 177.1330  0.00  0.00     0.000 O
ATOM     74   S  SGN F   4     -14.142  49.540 178.2280  0.00  0.00     0.000 S
ATOM     75   O  SGN F   4     -13.155  50.351 177.5950  0.00  0.00     0.000 OA
ATOM     76   O  SGN F   4     -15.159  50.345 178.9030  0.00  0.00     0.000 OA
ATOM     77   O  SGN F   4     -13.527  48.561 179.0370  0.00  0.00     0.000 OA
BRANCH 58 78
ATOM     78  O4  IDS F   5     -14.632  44.160 175.3700  0.00  0.00     0.000 O
BRANCH 78 82
ATOM     79  C1  IDS F   5     -12.515  42.486 173.1650  0.00  0.00     0.000 C
ATOM     80  C2  IDS F   5     -13.849  41.883 173.5850  0.00  0.00     0.000 C
ATOM     81  C3  IDS F   5     -14.009  41.855 175.1060  0.00  0.00     0.000 C
ATOM     82  C4  IDS F   5     -13.654  43.225 175.7220  0.00  0.00     0.000 C
ATOM     83  C5  IDS F   5     -12.294  43.691 175.1970  0.00  0.00     0.000 C
ATOM     84  O5  IDS F   5     -12.293  43.726 173.7850  0.00  0.00     0.000 O
ATOM     85   O  IDS F   5     -11.504  41.551 173.4510  0.00  0.00     0.000 OA
ATOM     86   O  IDS F   5     -14.872  42.688 173.0680  0.00  0.00     0.000 O
ATOM     87   S  IDS F   5     -16.381  42.322 172.8820  0.00  0.00     0.000 S
ATOM     88   O  IDS F   5     -16.724  41.384 173.9180  0.00  0.00     0.000 OA
ATOM     89   O  IDS F   5     -17.112  43.562 173.0050  0.00  0.00     0.000 OA
ATOM     90   O  IDS F   5     -16.458  41.727 171.5740  0.00  0.00     0.000 OA
ATOM     91   O  IDS F   5     -13.129  40.877 175.6240  0.00  0.00     0.000 O
ATOM     93  HD  IDS F   5     -12.490  41.375 175.9280  0.00  0.00     0.000 HD
ATOM     93   O  IDS F   5     -11.695  45.986 175.0720  0.00  0.00     0.000 OA
ATOM     94   O  IDS F   5     -11.589  45.134 176.9590  0.00  0.00     0.000 OA
ATOM     95   C  IDS F   5     -11.830  45.016 175.7730  0.00  0.00     0.000 C
ENDBRANCH 78 82
ENDBRANCH 58 78
ENDBRANCH 57 61
ENDBRANCH 41 57
ENDBRANCH 40 44
ENDBRANCH 20 40
ENDBRANCH 19 23
ENDBRANCH 1 19
TORSDOF 8
ENDMDL
MODEL 16
REMARK VINA RESULT:      -6.6      3.772      5.997
FFDIST PL LJ 2322 74 36 -1
ROOT
ATOM      1  C1  IDS F   1     -10.372  48.778 173.4920  0.00  0.00     0.000 C
ATOM      2  C2  IDS F   1      -9.503  50.041 173.6100  0.00  0.00     0.000 C
ATOM      3  C3  IDS F   1      -9.997  51.020 174.7030  0.00  0.00     0.000 C
ATOM      4  C4  IDS F   1     -10.533  50.323 175.9750  0.00  0.00     0.000 C
ATOM      5  C5  IDS F   1     -11.319  49.062 175.5990  0.00  0.00     0.000 C
ATOM      6  O5  IDS F   1     -10.554  48.245 174.7770  0.00  0.00     0.000 O
ATOM      7   S  IDS F   1      -6.857  50.559 173.7760  0.00  0.00     0.000 S
ATOM      8   O  IDS F   1      -7.164  51.810 174.4020  0.00  0.00     0.000 OA
ATOM      9   O  IDS F   1      -5.793  49.885 174.4620  0.00  0.00     0.000 OA
ATOM     10   O  IDS F   1      -6.637  50.671 172.3530  0.00  0.00     0.000 OA
ATOM     11   O  IDS F   1      -8.175  49.687 173.9380  0.00  0.00     0.000 O
ATOM     12   O  IDS F   1     -11.037  51.829 174.1590  0.00  0.00     0.000 O
ATOM     14  HD  IDS F   1     -11.726  52.156 174.5690  0.00  0.00     0.000 HD
ATOM     14   O  IDS F   1      -9.422  49.972 176.7620  0.00  0.00     0.000 O
ATOM     16  HD  IDS F   1     -10.111  50.299 177.1720  0.00  0.00     0.000 HD
ATOM     16   O  IDS F   1     -11.825  47.018 176.7110  0.00  0.00     0.000 OA
ATOM     17   O  IDS F   1     -12.380  48.761 177.7260  0.00  0.00     0.000 OA
ATOM     18   C  IDS F   1     -11.869  48.240 176.7480  0.00  0.00     0.000 C
ENDROOT
BRANCH 1 19
ATOM     19  O4  SGN F   2      -9.699  47.837 172.7280  0.00  0.00     0.000 O
BRANCH 19 23
ATOM     20  C1  SGN F   2     -12.610  45.543 170.8160  0.00  0.00     0.000 C
ATOM     21  C2  SGN F   2     -11.916  44.871 171.9890  0.00  0.00     0.000 C
ATOM     22  C3  SGN F   2     -11.307  45.914 172.9370  0.00  0.00     0.000 C
ATOM     23  C4  SGN F   2     -10.332  46.765 172.0620  0.00  0.00     0.000 C
ATOM     24  C5  SGN F   2     -11.158  47.374 170.9790  0.00  0.00     0.000 C
ATOM     25  O5  SGN F   2     -11.698  46.383 170.1640  0.00  0.00     0.000 O
ATOM     26   N  SGN F   2     -12.854  43.909 172.6160  0.00  0.00     0.000 N
ATOM     28  HD  SGN F   2     -13.087  43.714 173.4270  0.00  0.00     0.000 HD
ATOM     28   S  SGN F   2     -12.996  42.394 171.9130  0.00  0.00     0.000 S
ATOM     29   O  SGN F   2     -13.207  42.591 170.4960  0.00  0.00     0.000 OA
ATOM     30   O  SGN F   2     -11.740  41.738 172.1980  0.00  0.00     0.000 OA
ATOM     31   O  SGN F   2     -14.077  41.743 172.5580  0.00  0.00     0.000 OA
ATOM     32   O  SGN F   2     -10.595  45.228 173.9600  0.00  0.00     0.000 O
ATOM     34  HD  SGN F   2     -10.828  45.033 174.7710  0.00  0.00     0.000 HD
ATOM     34   C  SGN F   2     -10.363  48.267 170.0870  0.00  0.00     0.000 C
ATOM     35   O  SGN F   2      -9.313  47.484 169.6310  0.00  0.00     0.000 O
ATOM     36   S  SGN F   2      -8.300  47.844 168.5490  0.00  0.00     0.000 S
ATOM     37   O  SGN F   2      -7.014  47.678 169.1780  0.00  0.00     0.000 OA
ATOM     38   O  SGN F   2      -8.571  46.908 167.4790  0.00  0.00     0.000 OA
ATOM     39   O  SGN F   2      -8.563  49.223 168.1590  0.00  0.00     0.000 OA
BRANCH 20 40
ATOM     40  O4  IDS F   3     -13.734  46.273 171.2300  0.00  0.00     0.000 O
BRANCH 40 44
ATOM     41  C1  IDS F   3     -16.925  47.482 171.9700  0.00  0.00     0.000 C
ATOM     42  C2  IDS F   3     -16.525  46.094 172.4040  0.00  0.00     0.000 C
ATOM     43  C3  IDS F   3     -15.898  45.247 171.2320  0.00  0.00     0.000 C
ATOM     44  C4  IDS F   3     -14.890  46.052 170.4330  0.00  0.00     0.000 C
ATOM     45  C5  IDS F   3     -15.517  47.390 170.0410  0.00  0.00     0.000 C
ATOM     46  O5  IDS F   3     -15.888  48.106 171.1970  0.00  0.00     0.000 O
ATOM     47   O  IDS F   3     -15.401  44.261 174.8240  0.00  0.00     0.000 OA
ATOM     48   O  IDS F   3     -14.895  46.367 175.7770  0.00  0.00     0.000 OA
ATOM     49   O  IDS F   3     -17.152  45.783 175.1700  0.00  0.00     0.000 OA
ATOM     50   O  IDS F   3     -15.600  46.206 173.4920  0.00  0.00     0.000 O
ATOM     51   S  IDS F   3     -15.769  45.628 174.9050  0.00  0.00     0.000 S
ATOM     52   O  IDS F   3     -16.924  44.850 170.3290  0.00  0.00     0.000 O
ATOM     54  HD  IDS F   3     -16.929  45.012 171.1790  0.00  0.00     0.000 HD
ATOM     54   C  IDS F   3     -14.662  48.264 169.1170  0.00  0.00     0.000 C
ATOM     55   O  IDS F   3     -13.984  49.186 169.5630  0.00  0.00     0.000 OA
ATOM     56   O  IDS F   3     -14.620  48.059 167.8970  0.00  0.00     0.000 OA
BRANCH 41 57
ATOM     57  O4  SGN F   4     -18.134  47.403 171.2730  0.00  0.00     0.000 O
BRANCH 57 61
ATOM     58  C1  SGN F   4     -21.041  50.203 171.9520  0.00  0.00     0.000 C
ATOM     59  C2  SGN F   4     -20.953  49.648 170.5210  0.00  0.00     0.000 C
ATOM     60  C3  SGN F   4     -20.144  48.364 170.4720  0.00  0.00     0.000 C
ATOM     61  C4  SGN F   4     -18.793  48.619 171.1380  0.00  0.00     0.000 C
ATOM     62  C5  SGN F   4     -18.999  49.228 172.5380  0.00  0.00     0.000 C
ATOM     63  O5  SGN F   4     -19.752  50.399 172.4650  0.00  0.00     0.000 O
ATOM     64   N  SGN F   4     -22.277  49.462 169.9610  0.00  0.00     0.000 N
ATOM     66  HD  SGN F   4     -21.748  50.004 170.3810  0.00  0.00     0.000 HD
ATOM     66   S  SGN F   4     -22.972  50.742 169.2270  0.00  0.00     0.000 S
ATOM     67   O  SGN F   4     -23.264  51.698 170.2780  0.00  0.00     0.000 OA
ATOM     68   O  SGN F   4     -22.027  51.275 168.2480  0.00  0.00     0.000 OA
ATOM     69   O  SGN F   4     -24.169  50.179 168.6430  0.00  0.00     0.000 OA
ATOM     70   O  SGN F   4     -19.906  47.999 169.1200  0.00  0.00     0.000 O
ATOM     72  HD  SGN F   4     -19.377  48.540 169.5400  0.00  0.00     0.000 HD
ATOM     72   C  SGN F   4     -17.725  49.636 173.2310  0.00  0.00     0.000 C
ATOM     73   O  SGN F   4     -17.091  50.594 172.4160  0.00  0.00     0.000 O
ATOM     74   S  SGN F   4     -16.180  51.750 172.9230  0.00  0.00     0.000 S
ATOM     75   O  SGN F   4     -15.475  51.294 174.0760  0.00  0.00     0.000 OA
ATOM     76   O  SGN F   4     -15.273  52.095 171.8300  0.00  0.00     0.000 OA
ATOM     77   O  SGN F   4     -17.095  52.763 173.2770  0.00  0.00     0.000 OA
BRANCH 58 78
ATOM     78  O4  IDS F   5     -21.797  49.347 172.7740  0.00  0.00     0.000 O
BRANCH 78 82
ATOM     79  C1  IDS F   5     -23.798  47.853 175.2060  0.00  0.00     0.000 C
ATOM     80  C2  IDS F   5     -24.277  47.986 173.7680  0.00  0.00     0.000 C
ATOM     81  C3  IDS F   5     -24.150  49.422 173.2540  0.00  0.00     0.000 C
ATOM     82  C4  IDS F   5     -22.751  49.995 173.5650  0.00  0.00     0.000 C
ATOM     83  C5  IDS F   5     -22.420  49.778 175.0430  0.00  0.00     0.000 C
ATOM     84  O5  IDS F   5     -22.519  48.409 175.3760  0.00  0.00     0.000 O
ATOM     85   O  IDS F   5     -24.759  48.445 176.0440  0.00  0.00     0.000 OA
ATOM     86   O  IDS F   5     -23.466  47.178 172.9620  0.00  0.00     0.000 O
ATOM     87   S  IDS F   5     -23.757  46.664 171.5140  0.00  0.00     0.000 S
ATOM     88   O  IDS F   5     -24.570  47.658 170.8630  0.00  0.00     0.000 OA
ATOM     89   O  IDS F   5     -22.470  46.510 170.8760  0.00  0.00     0.000 OA
ATOM     90   O  IDS F   5     -24.468  45.427 171.6970  0.00  0.00     0.000 OA
ATOM     91   O  IDS F   5     -25.125  50.211 173.9070  0.00  0.00     0.000 O
ATOM     93  HD  IDS F   5     -24.639  50.620 174.4950  0.00  0.00     0.000 HD
ATOM     93   O  IDS F   5     -20.186  49.620 175.8370  0.00  0.00     0.000 OA
ATOM     94   O  IDS F   5     -20.859  51.538 175.4300  0.00  0.00     0.000 OA
ATOM     95   C  IDS F   5     -21.076  50.342 175.4640  0.00  0.00     0.000 C
ENDBRANCH 78 82
ENDBRANCH 58 78
ENDBRANCH 57 61
ENDBRANCH 41 57
ENDBRANCH 40 44
ENDBRANCH 20 40
ENDBRANCH 19 23
ENDBRANCH 1 19
TORSDOF 8
ENDMDL
MODEL 17
REMARK VINA RESULT:      -6.5      2.941     13.060
FFDIST PL LJ 2322 74 36 -1
ROOT
ATOM      1  C1  IDS F   1     -20.476  52.512 172.0620  0.00  0.00     0.000 C
ATOM      2  C2  IDS F   1     -21.768  51.912 171.4820  0.00  0.00     0.000 C
ATOM      3  C3  IDS F   1     -22.767  52.984 170.9850  0.00  0.00     0.000 C
ATOM      4  C4  IDS F   1     -22.097  54.198 170.3000  0.00  0.00     0.000 C
ATOM      5  C5  IDS F   1     -20.801  54.572 171.0290  0.00  0.00     0.000 C
ATOM      6  O5  IDS F   1     -19.980  53.457 171.1530  0.00  0.00     0.000 O
ATOM      7   S  IDS F   1     -22.370  49.957 169.7170  0.00  0.00     0.000 S
ATOM      8   O  IDS F   1     -23.631  50.592 169.4790  0.00  0.00     0.000 OA
ATOM      9   O  IDS F   1     -21.751  49.557 168.4870  0.00  0.00     0.000 OA
ATOM     10   O  IDS F   1     -22.442  48.894 170.6920  0.00  0.00     0.000 OA
ATOM     11   O  IDS F   1     -21.465  51.082 170.3790  0.00  0.00     0.000 O
ATOM     12   O  IDS F   1     -23.526  53.455 172.0960  0.00  0.00     0.000 O
ATOM     14  HD  IDS F   1     -23.846  54.250 172.2230  0.00  0.00     0.000 HD
ATOM     14   O  IDS F   1     -21.805  53.826 168.9760  0.00  0.00     0.000 O
ATOM     16  HD  IDS F   1     -22.125  54.621 169.1030  0.00  0.00     0.000 HD
ATOM     16   O  IDS F   1     -18.781  55.657 170.3900  0.00  0.00     0.000 OA
ATOM     17   O  IDS F   1     -20.539  56.731 170.0260  0.00  0.00     0.000 OA
ATOM     18   C  IDS F   1     -20.002  55.718 170.4440  0.00  0.00     0.000 C
ENDROOT
BRANCH 1 19
ATOM     19  O4  SGN F   2     -19.531  51.505 172.1940  0.00  0.00     0.000 O
BRANCH 19 23
ATOM     20  C1  SGN F   2     -17.733  49.018 175.0170  0.00  0.00     0.000 C
ATOM     21  C2  SGN F   2     -19.210  48.760 174.7660  0.00  0.00     0.000 C
ATOM     22  C3  SGN F   2     -19.634  49.295 173.3910  0.00  0.00     0.000 C
ATOM     23  C4  SGN F   2     -19.278  50.816 173.3990  0.00  0.00     0.000 C
ATOM     24  C5  SGN F   2     -17.806  50.904 173.6300  0.00  0.00     0.000 C
ATOM     25  O5  SGN F   2     -17.479  50.389 174.8810  0.00  0.00     0.000 O
ATOM     26   N  SGN F   2     -19.494  47.325 175.0080  0.00  0.00     0.000 N
ATOM     28  HD  SGN F   2     -19.940  46.707 174.5970  0.00  0.00     0.000 HD
ATOM     28   S  SGN F   2     -19.743  46.840 176.5930  0.00  0.00     0.000 S
ATOM     29   O  SGN F   2     -18.657  47.371 177.3860  0.00  0.00     0.000 OA
ATOM     30   O  SGN F   2     -21.021  47.412 176.9550  0.00  0.00     0.000 OA
ATOM     31   O  SGN F   2     -19.795  45.424 176.5850  0.00  0.00     0.000 OA
ATOM     32   O  SGN F   2     -21.037  49.109 173.2520  0.00  0.00     0.000 O
ATOM     34  HD  SGN F   2     -21.483  48.491 172.8400  0.00  0.00     0.000 HD
ATOM     34   C  SGN F   2     -17.308  52.310 173.6090  0.00  0.00     0.000 C
ATOM     35   O  SGN F   2     -18.073  52.982 174.5500  0.00  0.00     0.000 O
ATOM     36   S  SGN F   2     -17.862  54.403 175.0630  0.00  0.00     0.000 S
ATOM     37   O  SGN F   2     -19.119  55.068 174.8330  0.00  0.00     0.000 OA
ATOM     38   O  SGN F   2     -17.518  54.233 176.4580  0.00  0.00     0.000 OA
ATOM     39   O  SGN F   2     -16.769  54.978 174.2890  0.00  0.00     0.000 OA
BRANCH 20 40
ATOM     40  O4  IDS F   3     -16.923  48.283 174.1390  0.00  0.00     0.000 O
BRANCH 40 44
ATOM     41  C1  IDS F   3     -14.283  46.208 173.1810  0.00  0.00     0.000 C
ATOM     42  C2  IDS F   3     -14.708  46.268 174.6270  0.00  0.00     0.000 C
ATOM     43  C3  IDS F   3     -14.827  47.745 175.1660  0.00  0.00     0.000 C
ATOM     44  C4  IDS F   3     -15.549  48.646 174.1820  0.00  0.00     0.000 C
ATOM     45  C5  IDS F   3     -14.923  48.479 172.7980  0.00  0.00     0.000 C
ATOM     46  O5  IDS F   3     -15.028  47.137 172.3800  0.00  0.00     0.000 O
ATOM     47   O  IDS F   3     -16.469  44.883 176.9640  0.00  0.00     0.000 OA
ATOM     48   O  IDS F   3     -17.423  43.724 175.1350  0.00  0.00     0.000 OA
ATOM     49   O  IDS F   3     -15.060  43.605 175.5900  0.00  0.00     0.000 OA
ATOM     50   O  IDS F   3     -15.959  45.584 174.7630  0.00  0.00     0.000 O
ATOM     51   S  IDS F   3     -16.251  44.372 175.6590  0.00  0.00     0.000 S
ATOM     52   O  IDS F   3     -13.526  48.291 175.3520  0.00  0.00     0.000 O
ATOM     54  HD  IDS F   3     -13.828  47.481 175.3960  0.00  0.00     0.000 HD
ATOM     54   C  IDS F   3     -15.464  49.424 171.7190  0.00  0.00     0.000 C
ATOM     55   O  IDS F   3     -16.318  49.052 170.9190  0.00  0.00     0.000 OA
ATOM     56   O  IDS F   3     -15.064  50.592 171.6300  0.00  0.00     0.000 OA
BRANCH 41 57
ATOM     57  O4  SGN F   4     -12.905  46.431 173.1100  0.00  0.00     0.000 O
BRANCH 57 61
ATOM     58  C1  SGN F   4      -9.922  45.492 170.4700  0.00  0.00     0.000 C
ATOM     59  C2  SGN F   4     -10.646  46.827 170.2310  0.00  0.00     0.000 C
ATOM     60  C3  SGN F   4     -11.428  47.262 171.4570  0.00  0.00     0.000 C
ATOM     61  C4  SGN F   4     -12.340  46.113 171.8810  0.00  0.00     0.000 C
ATOM     62  C5  SGN F   4     -11.523  44.815 172.0330  0.00  0.00     0.000 C
ATOM     63  O5  SGN F   4     -10.847  44.512 170.8510  0.00  0.00     0.000 O
ATOM     64   N  SGN F   4      -9.709  47.850 169.8080  0.00  0.00     0.000 N
ATOM     66  HD  SGN F   4      -9.984  47.038 169.6860  0.00  0.00     0.000 HD
ATOM     66   S  SGN F   4      -9.374  47.955 168.2160  0.00  0.00     0.000 S
ATOM     67   O  SGN F   4      -8.624  46.759 167.8830  0.00  0.00     0.000 OA
ATOM     68   O  SGN F   4     -10.639  48.029 167.4870  0.00  0.00     0.000 OA
ATOM     69   O  SGN F   4      -8.573  49.155 168.1250  0.00  0.00     0.000 OA
ATOM     70   O  SGN F   4     -12.246  48.377 171.1330  0.00  0.00     0.000 O
ATOM     72  HD  SGN F   4     -12.522  47.565 171.0110  0.00  0.00     0.000 HD
ATOM     72   C  SGN F   4     -12.350  43.590 172.3250  0.00  0.00     0.000 C
ATOM     73   O  SGN F   4     -13.252  43.428 171.2560  0.00  0.00     0.000 O
ATOM     74   S  SGN F   4     -13.815  42.068 170.7500  0.00  0.00     0.000 S
ATOM     75   O  SGN F   4     -13.953  41.194 171.8680  0.00  0.00     0.000 OA
ATOM     76   O  SGN F   4     -15.102  42.344 170.1130  0.00  0.00     0.000 OA
ATOM     77   O  SGN F   4     -12.812  41.595 169.8790  0.00  0.00     0.000 OA
BRANCH 58 78
ATOM     78  O4  IDS F   5      -8.904  45.641 171.4300  0.00  0.00     0.000 O
BRANCH 78 82
ATOM     79  C1  IDS F   5      -6.097  45.401 173.4830  0.00  0.00     0.000 C
ATOM     80  C2  IDS F   5      -6.243  46.537 172.4800  0.00  0.00     0.000 C
ATOM     81  C3  IDS F   5      -6.559  46.021 171.0740  0.00  0.00     0.000 C
ATOM     82  C4  IDS F   5      -7.707  44.990 171.1120  0.00  0.00     0.000 C
ATOM     83  C5  IDS F   5      -7.411  43.925 172.1690  0.00  0.00     0.000 C
ATOM     84  O5  IDS F   5      -7.193  44.524 173.4290  0.00  0.00     0.000 O
ATOM     85   O  IDS F   5      -4.875  44.753 173.2330  0.00  0.00     0.000 OA
ATOM     86   O  IDS F   5      -7.316  47.340 172.8840  0.00  0.00     0.000 O
ATOM     87   S  IDS F   5      -7.642  48.804 172.4420  0.00  0.00     0.000 S
ATOM     88   O  IDS F   5      -7.158  48.962 171.0960  0.00  0.00     0.000 OA
ATOM     89   O  IDS F   5      -9.078  48.938 172.5240  0.00  0.00     0.000 OA
ATOM     90   O  IDS F   5      -6.925  49.638 173.3700  0.00  0.00     0.000 OA
ATOM     91   O  IDS F   5      -5.398  45.396 170.5640  0.00  0.00     0.000 O
ATOM     93  HD  IDS F   5      -5.601  44.561 170.6690  0.00  0.00     0.000 HD
ATOM     93   O  IDS F   5      -9.130  42.696 173.2560  0.00  0.00     0.000 OA
ATOM     94   O  IDS F   5      -8.669  42.081 171.3310  0.00  0.00     0.000 OA
ATOM     95   C  IDS F   5      -8.464  42.836 172.2620  0.00  0.00     0.000 C
ENDBRANCH 78 82
ENDBRANCH 58 78
ENDBRANCH 57 61
ENDBRANCH 41 57
ENDBRANCH 40 44
ENDBRANCH 20 40
ENDBRANCH 19 23
ENDBRANCH 1 19
TORSDOF 8
ENDMDL
MODEL 18
REMARK VINA RESULT:      -6.5      4.697     12.998
FFDIST PL LJ 2322 74 36 -1
ROOT
ATOM      1  C1  IDS F   1     -21.082  47.271 173.3700  0.00  0.00     0.000 C
ATOM      2  C2  IDS F   1     -20.458  48.286 174.3420  0.00  0.00     0.000 C
ATOM      3  C3  IDS F   1     -20.538  49.745 173.8320  0.00  0.00     0.000 C
ATOM      4  C4  IDS F   1     -21.854  50.082 173.0940  0.00  0.00     0.000 C
ATOM      5  C5  IDS F   1     -22.300  48.895 172.2320  0.00  0.00     0.000 C
ATOM      6  O5  IDS F   1     -22.351  47.737 172.9970  0.00  0.00     0.000 O
ATOM      7   S  IDS F   1     -20.627  48.780 176.9930  0.00  0.00     0.000 S
ATOM      8   O  IDS F   1     -20.211  50.128 176.7450  0.00  0.00     0.000 OA
ATOM      9   O  IDS F   1     -21.734  48.740 177.9040  0.00  0.00     0.000 OA
ATOM     10   O  IDS F   1     -19.541  47.909 177.3760  0.00  0.00     0.000 OA
ATOM     11   O  IDS F   1     -21.129  48.242 175.5850  0.00  0.00     0.000 O
ATOM     12   O  IDS F   1     -19.449  49.981 172.9430  0.00  0.00     0.000 O
ATOM     14  HD  IDS F   1     -19.432  50.499 172.2490  0.00  0.00     0.000 HD
ATOM     14   O  IDS F   1     -22.829  50.348 174.0720  0.00  0.00     0.000 O
ATOM     16  HD  IDS F   1     -22.811  50.866 173.3780  0.00  0.00     0.000 HD
ATOM     16   O  IDS F   1     -24.396  48.125 171.4080  0.00  0.00     0.000 OA
ATOM     17   O  IDS F   1     -23.904  50.099 170.9210  0.00  0.00     0.000 OA
ATOM     18   C  IDS F   1     -23.606  49.056 171.4810  0.00  0.00     0.000 C
ENDROOT
BRANCH 1 19
ATOM     19  O4  SGN F   2     -21.244  46.059 174.0260  0.00  0.00     0.000 O
BRANCH 19 23
ATOM     20  C1  SGN F   2     -18.247  43.338 173.0220  0.00  0.00     0.000 C
ATOM     21  C2  SGN F   2     -19.375  43.469 172.0110  0.00  0.00     0.000 C
ATOM     22  C3  SGN F   2     -20.095  44.817 172.1640  0.00  0.00     0.000 C
ATOM     23  C4  SGN F   2     -20.597  44.865 173.6430  0.00  0.00     0.000 C
ATOM     24  C5  SGN F   2     -19.384  44.750 174.5050  0.00  0.00     0.000 C
ATOM     25  O5  SGN F   2     -18.765  43.519 174.3110  0.00  0.00     0.000 O
ATOM     26   N  SGN F   2     -18.844  43.179 170.6580  0.00  0.00     0.000 N
ATOM     28  HD  SGN F   2     -18.917  43.543 169.8750  0.00  0.00     0.000 HD
ATOM     28   S  SGN F   2     -18.710  41.572 170.2050  0.00  0.00     0.000 S
ATOM     29   O  SGN F   2     -18.026  40.875 171.2720  0.00  0.00     0.000 OA
ATOM     30   O  SGN F   2     -20.074  41.122 170.0390  0.00  0.00     0.000 OA
ATOM     31   O  SGN F   2     -18.004  41.549 168.9760  0.00  0.00     0.000 OA
ATOM     32   O  SGN F   2     -21.193  44.844 171.2600  0.00  0.00     0.000 O
ATOM     34  HD  SGN F   2     -21.266  45.208 170.4770  0.00  0.00     0.000 HD
ATOM     34   C  SGN F   2     -19.707  44.836 175.9590  0.00  0.00     0.000 C
ATOM     35   O  SGN F   2     -20.658  43.850 176.1790  0.00  0.00     0.000 O
ATOM     36   S  SGN F   2     -21.202  43.382 177.5250  0.00  0.00     0.000 S
ATOM     37   O  SGN F   2     -22.632  43.526 177.4140  0.00  0.00     0.000 OA
ATOM     38   O  SGN F   2     -20.743  42.015 177.6400  0.00  0.00     0.000 OA
ATOM     39   O  SGN F   2     -20.625  44.249 178.5440  0.00  0.00     0.000 OA
BRANCH 20 40
ATOM     40  O4  IDS F   3     -17.222  44.262 172.7740  0.00  0.00     0.000 O
BRANCH 40 44
ATOM     41  C1  IDS F   3     -14.174  45.930 172.4230  0.00  0.00     0.000 C
ATOM     42  C2  IDS F   3     -15.135  45.862 171.2620  0.00  0.00     0.000 C
ATOM     43  C3  IDS F   3     -15.644  44.397 170.9780  0.00  0.00     0.000 C
ATOM     44  C4  IDS F   3     -16.033  43.679 172.2570  0.00  0.00     0.000 C
ATOM     45  C5  IDS F   3     -14.900  43.817 173.2730  0.00  0.00     0.000 C
ATOM     46  O5  IDS F   3     -14.660  45.179 173.5460  0.00  0.00     0.000 O
ATOM     47   O  IDS F   3     -17.474  47.386 169.6240  0.00  0.00     0.000 OA
ATOM     48   O  IDS F   3     -17.480  48.782 171.5350  0.00  0.00     0.000 OA
ATOM     49   O  IDS F   3     -15.489  48.491 170.2110  0.00  0.00     0.000 OA
ATOM     50   O  IDS F   3     -16.240  46.732 171.5330  0.00  0.00     0.000 O
ATOM     51   S  IDS F   3     -16.700  47.925 170.6830  0.00  0.00     0.000 S
ATOM     52   O  IDS F   3     -14.601  43.638 170.3760  0.00  0.00     0.000 O
ATOM     54  HD  IDS F   3     -14.789  44.483 170.3590  0.00  0.00     0.000 HD
ATOM     54   C  IDS F   3     -15.093  43.032 174.5750  0.00  0.00     0.000 C
ATOM     55   O  IDS F   3     -15.511  43.581 175.5920  0.00  0.00     0.000 OA
ATOM     56   O  IDS F   3     -14.844  41.821 174.6370  0.00  0.00     0.000 OA
BRANCH 41 57
ATOM     57  O4  SGN F   4     -12.919  45.491 171.9920  0.00  0.00     0.000 O
BRANCH 57 61
ATOM     58  C1  SGN F   4      -9.135  46.729 172.9390  0.00  0.00     0.000 C
ATOM     59  C2  SGN F   4      -9.540  45.335 173.4450  0.00  0.00     0.000 C
ATOM     60  C3  SGN F   4     -10.769  44.817 172.7190  0.00  0.00     0.000 C
ATOM     61  C4  SGN F   4     -11.869  45.872 172.8180  0.00  0.00     0.000 C
ATOM     62  C5  SGN F   4     -11.337  47.238 172.3430  0.00  0.00     0.000 C
ATOM     63  O5  SGN F   4     -10.211  47.615 173.0750  0.00  0.00     0.000 O
ATOM     64   N  SGN F   4      -8.431  44.407 173.3380  0.00  0.00     0.000 N
ATOM     66  HD  SGN F   4      -8.684  45.191 173.6050  0.00  0.00     0.000 HD
ATOM     66   S  SGN F   4      -7.374  44.350 174.5780  0.00  0.00     0.000 S
ATOM     67   O  SGN F   4      -6.662  45.614 174.5580  0.00  0.00     0.000 OA
ATOM     68   O  SGN F   4      -8.130  44.166 175.8150  0.00  0.00     0.000 OA
ATOM     69   O  SGN F   4      -6.525  43.230 174.2370  0.00  0.00     0.000 OA
ATOM     70   O  SGN F   4     -11.237  43.634 173.3530  0.00  0.00     0.000 O
ATOM     72  HD  SGN F   4     -11.490  44.418 173.6200  0.00  0.00     0.000 HD
ATOM     72   C  SGN F   4     -12.306  48.378 172.5200  0.00  0.00     0.000 C
ATOM     73   O  SGN F   4     -12.604  48.468 173.8940  0.00  0.00     0.000 O
ATOM     74   S  SGN F   4     -12.975  49.775 174.6530  0.00  0.00     0.000 S
ATOM     75   O  SGN F   4     -13.701  50.621 173.7650  0.00  0.00     0.000 OA
ATOM     76   O  SGN F   4     -13.776  49.387 175.8130  0.00  0.00     0.000 OA
ATOM     77   O  SGN F   4     -11.723  50.347 174.9620  0.00  0.00     0.000 OA
BRANCH 58 78
ATOM     78  O4  IDS F   5      -8.685  46.665 171.6070  0.00  0.00     0.000 O
BRANCH 78 82
ATOM     79  C1  IDS F   5      -7.235  47.150 168.4750  0.00  0.00     0.000 C
ATOM     80  C2  IDS F   5      -6.755  46.040 169.4000  0.00  0.00     0.000 C
ATOM     81  C3  IDS F   5      -6.425  46.565 170.7990  0.00  0.00     0.000 C
ATOM     82  C4  IDS F   5      -7.565  47.457 171.3350  0.00  0.00     0.000 C
ATOM     83  C5  IDS F   5      -7.931  48.513 170.2890  0.00  0.00     0.000 C
ATOM     84  O5  IDS F   5      -8.268  47.899 169.0620  0.00  0.00     0.000 O
ATOM     85   O  IDS F   5      -6.125  47.941 168.1300  0.00  0.00     0.000 OA
ATOM     86   O  IDS F   5      -7.791  45.107 169.5340  0.00  0.00     0.000 O
ATOM     87   S  IDS F   5      -7.695  43.632 170.0430  0.00  0.00     0.000 S
ATOM     88   O  IDS F   5      -6.617  43.577 170.9940  0.00  0.00     0.000 OA
ATOM     89   O  IDS F   5      -8.972  43.333 170.6500  0.00  0.00     0.000 OA
ATOM     90   O  IDS F   5      -7.413  42.853 168.8670  0.00  0.00     0.000 OA
ATOM     91   O  IDS F   5      -5.242  47.335 170.7120  0.00  0.00     0.000 O
ATOM     93  HD  IDS F   5      -5.566  48.138 170.7350  0.00  0.00     0.000 HD
ATOM     93   O  IDS F   5     -10.089  49.500 170.1770  0.00  0.00     0.000 OA
ATOM     94   O  IDS F   5      -8.846  50.230 171.6670  0.00  0.00     0.000 OA
ATOM     95   C  IDS F   5      -9.021  49.471 170.7330  0.00  0.00     0.000 C
ENDBRANCH 78 82
ENDBRANCH 58 78
ENDBRANCH 57 61
ENDBRANCH 41 57
ENDBRANCH 40 44
ENDBRANCH 20 40
ENDBRANCH 19 23
ENDBRANCH 1 19
TORSDOF 8
ENDMDL
MODEL 19
REMARK VINA RESULT:      -6.5      2.138      3.355
FFDIST PL LJ 2322 74 36 -1
ROOT
ATOM      1  C1  IDS F   1     -11.362  45.998 174.2570  0.00  0.00     0.000 C
ATOM      2  C2  IDS F   1     -11.371  44.563 174.8090  0.00  0.00     0.000 C
ATOM      3  C3  IDS F   1     -10.117  43.749 174.4080  0.00  0.00     0.000 C
ATOM      4  C4  IDS F   1      -8.809  44.573 174.4040  0.00  0.00     0.000 C
ATOM      5  C5  IDS F   1      -9.069  45.983 173.8620  0.00  0.00     0.000 C
ATOM      6  O5  IDS F   1     -10.119  46.577 174.5510  0.00  0.00     0.000 O
ATOM      7   S  IDS F   1     -11.841  43.416 177.2100  0.00  0.00     0.000 S
ATOM      8   O  IDS F   1     -11.064  42.287 176.7970  0.00  0.00     0.000 OA
ATOM      9   O  IDS F   1     -11.501  43.819 178.5440  0.00  0.00     0.000 OA
ATOM     10   O  IDS F   1     -13.260  43.235 177.0130  0.00  0.00     0.000 OA
ATOM     11   O  IDS F   1     -11.419  44.586 176.2210  0.00  0.00     0.000 O
ATOM     12   O  IDS F   1     -10.316  43.212 173.1030  0.00  0.00     0.000 O
ATOM     14  HD  IDS F   1      -9.721  43.068 172.4910  0.00  0.00     0.000 HD
ATOM     14   O  IDS F   1      -8.358  44.653 175.7340  0.00  0.00     0.000 O
ATOM     16  HD  IDS F   1      -7.763  44.509 175.1210  0.00  0.00     0.000 HD
ATOM     16   O  IDS F   1      -8.027  48.103 174.1570  0.00  0.00     0.000 OA
ATOM     17   O  IDS F   1      -6.773  46.562 173.5010  0.00  0.00     0.000 OA
ATOM     18   C  IDS F   1      -7.886  46.929 173.8410  0.00  0.00     0.000 C
ENDROOT
BRANCH 1 19
ATOM     19  O4  SGN F   2     -12.343  46.736 174.9040  0.00  0.00     0.000 O
BRANCH 19 23
ATOM     20  C1  SGN F   2     -16.392  47.532 174.3000  0.00  0.00     0.000 C
ATOM     21  C2  SGN F   2     -16.073  46.627 175.4800  0.00  0.00     0.000 C
ATOM     22  C3  SGN F   2     -14.627  46.833 175.9530  0.00  0.00     0.000 C
ATOM     23  C4  SGN F   2     -13.728  46.545 174.7090  0.00  0.00     0.000 C
ATOM     24  C5  SGN F   2     -14.140  47.518 173.6550  0.00  0.00     0.000 C
ATOM     25  O5  SGN F   2     -15.462  47.296 173.2790  0.00  0.00     0.000 O
ATOM     26   N  SGN F   2     -17.117  46.807 176.5170  0.00  0.00     0.000 N
ATOM     28  HD  SGN F   2     -17.120  46.908 177.3770  0.00  0.00     0.000 HD
ATOM     28   S  SGN F   2     -18.548  45.955 176.3330  0.00  0.00     0.000 S
ATOM     29   O  SGN F   2     -19.013  46.175 174.9810  0.00  0.00     0.000 OA
ATOM     30   O  SGN F   2     -18.190  44.576 176.5750  0.00  0.00     0.000 OA
ATOM     31   O  SGN F   2     -19.443  46.438 177.3210  0.00  0.00     0.000 OA
ATOM     32   O  SGN F   2     -14.360  45.899 176.9930  0.00  0.00     0.000 O
ATOM     34  HD  SGN F   2     -14.363  46.001 177.8530  0.00  0.00     0.000 HD
ATOM     34   C  SGN F   2     -13.322  47.397 172.4140  0.00  0.00     0.000 C
ATOM     35   O  SGN F   2     -13.431  46.067 172.0340  0.00  0.00     0.000 O
ATOM     36   S  SGN F   2     -12.939  45.438 170.7350  0.00  0.00     0.000 S
ATOM     37   O  SGN F   2     -12.087  44.353 171.1500  0.00  0.00     0.000 OA
ATOM     38   O  SGN F   2     -14.149  45.027 170.0560  0.00  0.00     0.000 OA
ATOM     39   O  SGN F   2     -12.218  46.474 170.0050  0.00  0.00     0.000 OA
BRANCH 20 40
ATOM     40  O4  IDS F   3     -16.380  48.885 174.6680  0.00  0.00     0.000 O
BRANCH 40 44
ATOM     41  C1  IDS F   3     -16.914  52.335 174.6330  0.00  0.00     0.000 C
ATOM     42  C2  IDS F   3     -16.942  51.581 175.9390  0.00  0.00     0.000 C
ATOM     43  C3  IDS F   3     -17.871  50.308 175.8860  0.00  0.00     0.000 C
ATOM     44  C4  IDS F   3     -17.657  49.507 174.6160  0.00  0.00     0.000 C
ATOM     45  C5  IDS F   3     -17.730  50.448 173.4140  0.00  0.00     0.000 C
ATOM     46  O5  IDS F   3     -16.739  51.445 173.5210  0.00  0.00     0.000 O
ATOM     47   O  IDS F   3     -15.266  50.705 178.5660  0.00  0.00     0.000 OA
ATOM     48   O  IDS F   3     -13.433  51.450 177.2690  0.00  0.00     0.000 OA
ATOM     49   O  IDS F   3     -15.258  52.925 177.8090  0.00  0.00     0.000 OA
ATOM     50   O  IDS F   3     -15.602  51.209 176.2790  0.00  0.00     0.000 O
ATOM     51   S  IDS F   3     -14.835  51.598 177.5520  0.00  0.00     0.000 S
ATOM     52   O  IDS F   3     -19.236  50.713 175.8990  0.00  0.00     0.000 O
ATOM     54  HD  IDS F   3     -18.520  51.071 176.2300  0.00  0.00     0.000 HD
ATOM     54   C  IDS F   3     -17.659  49.762 172.0450  0.00  0.00     0.000 C
ATOM     55   O  IDS F   3     -16.607  49.711 171.4130  0.00  0.00     0.000 OA
ATOM     56   O  IDS F   3     -18.657  49.231 171.5410  0.00  0.00     0.000 OA
BRANCH 41 57
ATOM     57  O4  SGN F   4     -18.083  53.094 174.5280  0.00  0.00     0.000 O
BRANCH 57 61
ATOM     58  C1  SGN F   4     -19.125  56.662 172.8160  0.00  0.00     0.000 C
ATOM     59  C2  SGN F   4     -19.232  55.420 171.9160  0.00  0.00     0.000 C
ATOM     60  C3  SGN F   4     -19.219  54.140 172.7330  0.00  0.00     0.000 C
ATOM     61  C4  SGN F   4     -17.992  54.161 173.6430  0.00  0.00     0.000 C
ATOM     62  C5  SGN F   4     -17.953  55.472 174.4510  0.00  0.00     0.000 C
ATOM     63  O5  SGN F   4     -17.970  56.579 173.6030  0.00  0.00     0.000 O
ATOM     64   N  SGN F   4     -20.409  55.498 171.0720  0.00  0.00     0.000 N
ATOM     66  HD  SGN F   4     -19.708  55.916 171.3620  0.00  0.00     0.000 HD
ATOM     66   S  SGN F   4     -20.268  56.288 169.6530  0.00  0.00     0.000 S
ATOM     67   O  SGN F   4     -20.092  57.689 169.9890  0.00  0.00     0.000 OA
ATOM     68   O  SGN F   4     -19.111  55.747 168.9410  0.00  0.00     0.000 OA
ATOM     69   O  SGN F   4     -21.532  56.029 169.0030  0.00  0.00     0.000 OA
ATOM     70   O  SGN F   4     -19.105  53.020 171.8680  0.00  0.00     0.000 O
ATOM     72  HD  SGN F   4     -18.404  53.438 172.1580  0.00  0.00     0.000 HD
ATOM     72   C  SGN F   4     -16.712  55.650 175.2880  0.00  0.00     0.000 C
ATOM     73   O  SGN F   4     -15.609  55.632 174.4120  0.00  0.00     0.000 O
ATOM     74   S  SGN F   4     -14.269  56.391 174.6340  0.00  0.00     0.000 S
ATOM     75   O  SGN F   4     -13.999  56.429 176.0340  0.00  0.00     0.000 OA
ATOM     76   O  SGN F   4     -13.235  55.664 173.9000  0.00  0.00     0.000 OA
ATOM     77   O  SGN F   4     -14.537  57.689 174.1520  0.00  0.00     0.000 OA
BRANCH 58 78
ATOM     78  O4  IDS F   5     -20.279  56.807 173.6080  0.00  0.00     0.000 O
BRANCH 78 82
ATOM     79  C1  IDS F   5     -22.917  57.898 175.6080  0.00  0.00     0.000 C
ATOM     80  C2  IDS F   5     -23.160  57.391 174.1930  0.00  0.00     0.000 C
ATOM     81  C3  IDS F   5     -22.261  58.092 173.1720  0.00  0.00     0.000 C
ATOM     82  C4  IDS F   5     -20.794  58.106 173.6510  0.00  0.00     0.000 C
ATOM     83  C5  IDS F   5     -20.722  58.634 175.0850  0.00  0.00     0.000 C
ATOM     84  O5  IDS F   5     -21.551  57.870 175.9360  0.00  0.00     0.000 O
ATOM     85   O  IDS F   5     -23.471  59.185 175.7120  0.00  0.00     0.000 OA
ATOM     86   O  IDS F   5     -22.850  56.026 174.1600  0.00  0.00     0.000 O
ATOM     87   S  IDS F   5     -23.276  54.969 173.0890  0.00  0.00     0.000 S
ATOM     88   O  IDS F   5     -23.397  55.659 171.8320  0.00  0.00     0.000 OA
ATOM     89   O  IDS F   5     -22.226  53.975 173.0670  0.00  0.00     0.000 OA
ATOM     90   O  IDS F   5     -24.543  54.467 173.5490  0.00  0.00     0.000 OA
ATOM     91   O  IDS F   5     -22.711  59.425 173.0320  0.00  0.00     0.000 O
ATOM     93  HD  IDS F   5     -22.121  59.849 173.5030  0.00  0.00     0.000 HD
ATOM     93   O  IDS F   5     -18.966  58.047 176.5730  0.00  0.00     0.000 OA
ATOM     94   O  IDS F   5     -18.496  59.484 175.1540  0.00  0.00     0.000 OA
ATOM     95   C  IDS F   5     -19.314  58.726 175.6410  0.00  0.00     0.000 C
ENDBRANCH 78 82
ENDBRANCH 58 78
ENDBRANCH 57 61
ENDBRANCH 41 57
ENDBRANCH 40 44
ENDBRANCH 20 40
ENDBRANCH 19 23
ENDBRANCH 1 19
TORSDOF 8
ENDMDL
MODEL 20
REMARK VINA RESULT:      -6.5      5.391      8.882
FFDIST PL LJ 2322 74 36 -1
ROOT
ATOM      1  C1  IDS F   1      -8.549  47.778 170.6130  0.00  0.00     0.000 C
ATOM      2  C2  IDS F   1      -8.517  46.827 169.4050  0.00  0.00     0.000 C
ATOM      3  C3  IDS F   1      -8.257  47.554 168.0640  0.00  0.00     0.000 C
ATOM      4  C4  IDS F   1      -7.241  48.715 168.1670  0.00  0.00     0.000 C
ATOM      5  C5  IDS F   1      -7.437  49.480 169.4800  0.00  0.00     0.000 C
ATOM      6  O5  IDS F   1      -7.415  48.602 170.5570  0.00  0.00     0.000 O
ATOM      7   S  IDS F   1      -7.317  44.477 168.8240  0.00  0.00     0.000 S
ATOM      8   O  IDS F   1      -7.441  44.785 167.4310  0.00  0.00     0.000 OA
ATOM      9   O  IDS F   1      -6.010  43.971 169.1290  0.00  0.00     0.000 OA
ATOM     10   O  IDS F   1      -8.383  43.639 169.3210  0.00  0.00     0.000 OA
ATOM     11   O  IDS F   1      -7.489  45.871 169.5670  0.00  0.00     0.000 O
ATOM     12   O  IDS F   1      -9.491  48.076 167.5780  0.00  0.00     0.000 O
ATOM     14  HD  IDS F   1      -9.618  48.799 167.1180  0.00  0.00     0.000 HD
ATOM     14   O  IDS F   1      -5.953  48.152 168.1350  0.00  0.00     0.000 O
ATOM     16  HD  IDS F   1      -6.080  48.875 167.6760  0.00  0.00     0.000 HD
ATOM     16   O  IDS F   1      -6.025  50.799 170.8710  0.00  0.00     0.000 OA
ATOM     17   O  IDS F   1      -6.143  51.402 168.8710  0.00  0.00     0.000 OA
ATOM     18   C  IDS F   1      -6.479  50.623 169.7480  0.00  0.00     0.000 C
ENDROOT
BRANCH 1 19
ATOM     19  O4  SGN F   2      -8.478  47.029 171.7780  0.00  0.00     0.000 O
BRANCH 19 23
ATOM     20  C1  SGN F   2     -11.408  47.439 174.7180  0.00  0.00     0.000 C
ATOM     21  C2  SGN F   2     -10.736  48.731 174.2800  0.00  0.00     0.000 C
ATOM     22  C3  SGN F   2     -10.120  48.583 172.8820  0.00  0.00     0.000 C
ATOM     23  C4  SGN F   2      -9.122  47.385 172.9830  0.00  0.00     0.000 C
ATOM     24  C5  SGN F   2      -9.927  46.198 173.3940  0.00  0.00     0.000 C
ATOM     25  O5  SGN F   2     -10.475  46.396 174.6580  0.00  0.00     0.000 O
ATOM     26   N  SGN F   2     -11.697  49.849 174.4390  0.00  0.00     0.000 N
ATOM     28  HD  SGN F   2     -11.941  50.526 173.9570  0.00  0.00     0.000 HD
ATOM     28   S  SGN F   2     -11.857  50.523 175.9650  0.00  0.00     0.000 S
ATOM     29   O  SGN F   2     -12.051  49.438 176.9010  0.00  0.00     0.000 OA
ATOM     30   O  SGN F   2     -10.615  51.228 176.1870  0.00  0.00     0.000 OA
ATOM     31   O  SGN F   2     -12.956  51.417 175.9050  0.00  0.00     0.000 OA
ATOM     32   O  SGN F   2      -9.430  49.786 172.5670  0.00  0.00     0.000 O
ATOM     34  HD  SGN F   2      -9.674  50.463 172.0840  0.00  0.00     0.000 HD
ATOM     34   C  SGN F   2      -9.108  44.954 173.4790  0.00  0.00     0.000 C
ATOM     35   O  SGN F   2      -8.066  45.262 174.3420  0.00  0.00     0.000 O
ATOM     36   S  SGN F   2      -7.037  44.299 174.9220  0.00  0.00     0.000 S
ATOM     37   O  SGN F   2      -5.760  44.863 174.5630  0.00  0.00     0.000 OA
ATOM     38   O  SGN F   2      -7.313  44.293 176.3430  0.00  0.00     0.000 OA
ATOM     39   O  SGN F   2      -7.273  42.999 174.3060  0.00  0.00     0.000 OA
BRANCH 20 40
ATOM     40  O4  IDS F   3     -12.523  47.142 173.9210  0.00  0.00     0.000 O
BRANCH 40 44
ATOM     41  C1  IDS F   3     -15.687  45.815 173.2700  0.00  0.00     0.000 C
ATOM     42  C2  IDS F   3     -15.142  46.926 172.4070  0.00  0.00     0.000 C
ATOM     43  C3  IDS F   3     -14.594  48.139 173.2500  0.00  0.00     0.000 C
ATOM     44  C4  IDS F   3     -13.744  47.674 174.4180  0.00  0.00     0.000 C
ATOM     45  C5  IDS F   3     -14.505  46.600 175.1940  0.00  0.00     0.000 C
ATOM     46  O5  IDS F   3     -14.792  45.508 174.3490  0.00  0.00     0.000 O
ATOM     47   O  IDS F   3     -13.622  47.680 169.6500  0.00  0.00     0.000 OA
ATOM     48   O  IDS F   3     -13.162  45.359 169.6270  0.00  0.00     0.000 OA
ATOM     49   O  IDS F   3     -15.426  46.180 169.6670  0.00  0.00     0.000 OA
ATOM     50   O  IDS F   3     -14.110  46.390 171.5720  0.00  0.00     0.000 O
ATOM     51   S  IDS F   3     -14.075  46.392 170.0370  0.00  0.00     0.000 S
ATOM     52   O  IDS F   3     -15.686  48.873 173.7960  0.00  0.00     0.000 O
ATOM     54  HD  IDS F   3     -15.605  48.401 173.0750  0.00  0.00     0.000 HD
ATOM     54   C  IDS F   3     -13.825  46.121 176.4810  0.00  0.00     0.000 C
ATOM     55   O  IDS F   3     -13.168  45.083 176.5050  0.00  0.00     0.000 OA
ATOM     56   O  IDS F   3     -13.909  46.772 177.5310  0.00  0.00     0.000 OA
BRANCH 41 57
ATOM     57  O4  SGN F   4     -16.959  46.180 173.7200  0.00  0.00     0.000 O
BRANCH 57 61
ATOM     58  C1  SGN F   4     -20.334  44.120 174.7760  0.00  0.00     0.000 C
ATOM     59  C2  SGN F   4     -19.407  44.542 175.9270  0.00  0.00     0.000 C
ATOM     60  C3  SGN F   4     -18.429  45.617 175.4880  0.00  0.00     0.000 C
ATOM     61  C4  SGN F   4     -17.703  45.127 174.2370  0.00  0.00     0.000 C
ATOM     62  C5  SGN F   4     -18.723  44.675 173.1750  0.00  0.00     0.000 C
ATOM     63  O5  SGN F   4     -19.569  43.689 173.6850  0.00  0.00     0.000 O
ATOM     64   N  SGN F   4     -20.180  44.966 177.0790  0.00  0.00     0.000 N
ATOM     66  HD  SGN F   4     -20.074  44.355 176.4750  0.00  0.00     0.000 HD
ATOM     66   S  SGN F   4     -20.662  43.816 178.1300  0.00  0.00     0.000 S
ATOM     67   O  SGN F   4     -21.651  43.020 177.4280  0.00  0.00     0.000 OA
ATOM     68   O  SGN F   4     -19.493  43.026 178.5100  0.00  0.00     0.000 OA
ATOM     69   O  SGN F   4     -21.234  44.579 179.2160  0.00  0.00     0.000 OA
ATOM     70   O  SGN F   4     -17.460  45.827 176.5050  0.00  0.00     0.000 O
ATOM     72  HD  SGN F   4     -17.353  45.216 175.9010  0.00  0.00     0.000 HD
ATOM     72   C  SGN F   4     -18.109  44.054 171.9470  0.00  0.00     0.000 C
ATOM     73   O  SGN F   4     -17.375  42.928 172.3690  0.00  0.00     0.000 O
ATOM     74   S  SGN F   4     -17.130  41.643 171.5250  0.00  0.00     0.000 S
ATOM     75   O  SGN F   4     -17.034  42.017 170.1530  0.00  0.00     0.000 OA
ATOM     76   O  SGN F   4     -15.893  41.037 172.0130  0.00  0.00     0.000 OA
ATOM     77   O  SGN F   4     -18.293  40.875 171.7440  0.00  0.00     0.000 OA
BRANCH 58 78
ATOM     78  O4  IDS F   5     -21.196  45.173 174.4170  0.00  0.00     0.000 O
BRANCH 78 82
ATOM     79  C1  IDS F   5     -23.771  47.232 173.2870  0.00  0.00     0.000 C
ATOM     80  C2  IDS F   5     -23.487  47.072 174.7740  0.00  0.00     0.000 C
ATOM     81  C3  IDS F   5     -23.430  45.601 175.1900  0.00  0.00     0.000 C
ATOM     82  C4  IDS F   5     -22.529  44.793 174.2310  0.00  0.00     0.000 C
ATOM     83  C5  IDS F   5     -22.938  45.068 172.7820  0.00  0.00     0.000 C
ATOM     84  O5  IDS F   5     -22.897  46.453 172.5100  0.00  0.00     0.000 O
ATOM     85   O  IDS F   5     -25.122  46.913 173.0630  0.00  0.00     0.000 OA
ATOM     86   O  IDS F   5     -22.233  47.634 175.0410  0.00  0.00     0.000 O
ATOM     87   S  IDS F   5     -21.650  48.069 176.4250  0.00  0.00     0.000 S
ATOM     88   O  IDS F   5     -22.220  47.201 177.4210  0.00  0.00     0.000 OA
ATOM     89   O  IDS F   5     -20.216  47.913 176.3230  0.00  0.00     0.000 OA
ATOM     90   O  IDS F   5     -22.076  49.433 176.5940  0.00  0.00     0.000 OA
ATOM     91   O  IDS F   5     -24.742  45.076 175.1370  0.00  0.00     0.000 O
ATOM     93  HD  IDS F   5     -24.712  44.632 174.3940  0.00  0.00     0.000 HD
ATOM     93   O  IDS F   5     -21.421  44.853 170.9670  0.00  0.00     0.000 OA
ATOM     94   O  IDS F   5     -22.191  43.076 171.7060  0.00  0.00     0.000 OA
ATOM     95   C  IDS F   5     -22.137  44.290 171.7550  0.00  0.00     0.000 C
ENDBRANCH 78 82
ENDBRANCH 58 78
ENDBRANCH 57 61
ENDBRANCH 41 57
ENDBRANCH 40 44
ENDBRANCH 20 40
ENDBRANCH 19 23
ENDBRANCH 1 19
TORSDOF 8
ENDMDL
MODEL 21
REMARK VINA RESULT:      -6.5      4.351     12.213
FFDIST PL LJ 2322 74 36 -1
ROOT
ATOM      1  C1  IDS F   1     -22.155  46.325 174.6940  0.00  0.00     0.000 C
ATOM      2  C2  IDS F   1     -21.785  44.877 174.3350  0.00  0.00     0.000 C
ATOM      3  C3  IDS F   1     -21.400  44.023 175.5680  0.00  0.00     0.000 C
ATOM      4  C4  IDS F   1     -22.248  44.321 176.8270  0.00  0.00     0.000 C
ATOM      5  C5  IDS F   1     -22.531  45.824 176.9350  0.00  0.00     0.000 C
ATOM      6  O5  IDS F   1     -23.078  46.297 175.7490  0.00  0.00     0.000 O
ATOM      7   S  IDS F   1     -22.870  42.920 172.8200  0.00  0.00     0.000 S
ATOM      8   O  IDS F   1     -22.158  41.953 173.5990  0.00  0.00     0.000 OA
ATOM      9   O  IDS F   1     -24.231  42.517 172.6120  0.00  0.00     0.000 OA
ATOM     10   O  IDS F   1     -22.190  43.283 171.5990  0.00  0.00     0.000 OA
ATOM     11   O  IDS F   1     -22.879  44.236 173.7110  0.00  0.00     0.000 O
ATOM     12   O  IDS F   1     -20.030  44.260 175.8810  0.00  0.00     0.000 O
ATOM     14  HD  IDS F   1     -19.654  44.258 176.6610  0.00  0.00     0.000 HD
ATOM     14   O  IDS F   1     -23.459  43.620 176.6930  0.00  0.00     0.000 O
ATOM     16  HD  IDS F   1     -23.084  43.618 177.4740  0.00  0.00     0.000 HD
ATOM     16   O  IDS F   1     -24.249  47.131 177.9400  0.00  0.00     0.000 OA
ATOM     17   O  IDS F   1     -23.263  45.798 179.2160  0.00  0.00     0.000 OA
ATOM     18   C  IDS F   1     -23.395  46.268 178.0980  0.00  0.00     0.000 C
ENDROOT
BRANCH 1 19
ATOM     19  O4  SGN F   2     -22.771  46.917 173.6010  0.00  0.00     0.000 O
BRANCH 19 23
ATOM     20  C1  SGN F   2     -20.162  49.682 171.8870  0.00  0.00     0.000 C
ATOM     21  C2  SGN F   2     -21.088  50.235 172.9580  0.00  0.00     0.000 C
ATOM     22  C3  SGN F   2     -21.584  49.116 173.8850  0.00  0.00     0.000 C
ATOM     23  C4  SGN F   2     -22.286  48.075 172.9560  0.00  0.00     0.000 C
ATOM     24  C5  SGN F   2     -21.252  47.612 171.9840  0.00  0.00     0.000 C
ATOM     25  O5  SGN F   2     -20.828  48.669 171.1850  0.00  0.00     0.000 O
ATOM     26   N  SGN F   2     -20.417  51.373 173.6320  0.00  0.00     0.000 N
ATOM     28  HD  SGN F   2     -20.311  51.627 174.4530  0.00  0.00     0.000 HD
ATOM     28   S  SGN F   2     -20.491  52.871 172.8840  0.00  0.00     0.000 S
ATOM     29   O  SGN F   2     -20.102  52.686 171.5040  0.00  0.00     0.000 OA
ATOM     30   O  SGN F   2     -21.871  53.280 173.0180  0.00  0.00     0.000 OA
ATOM     31   O  SGN F   2     -19.624  53.731 173.6030  0.00  0.00     0.000 OA
ATOM     32   O  SGN F   2     -22.514  49.676 174.8050  0.00  0.00     0.000 O
ATOM     34  HD  SGN F   2     -22.408  49.930 175.6260  0.00  0.00     0.000 HD
ATOM     34   C  SGN F   2     -21.769  46.563 171.0580  0.00  0.00     0.000 C
ATOM     35   O  SGN F   2     -22.895  47.120 170.4690  0.00  0.00     0.000 O
ATOM     36   S  SGN F   2     -23.705  46.548 169.3100  0.00  0.00     0.000 S
ATOM     37   O  SGN F   2     -25.057  46.479 169.8040  0.00  0.00     0.000 OA
ATOM     38   O  SGN F   2     -23.506  47.494 168.2340  0.00  0.00     0.000 OA
ATOM     39   O  SGN F   2     -23.148  45.236 169.0050  0.00  0.00     0.000 OA
BRANCH 20 40
ATOM     40  O4  IDS F   3     -18.970  49.190 172.4380  0.00  0.00     0.000 O
BRANCH 40 44
ATOM     41  C1  IDS F   3     -15.670  48.651 173.4450  0.00  0.00     0.000 C
ATOM     42  C2  IDS F   3     -16.278  50.026 173.5590  0.00  0.00     0.000 C
ATOM     43  C3  IDS F   3     -16.974  50.496 172.2250  0.00  0.00     0.000 C
ATOM     44  C4  IDS F   3     -17.827  49.398 171.6180  0.00  0.00     0.000 C
ATOM     45  C5  IDS F   3     -17.004  48.113 171.5360  0.00  0.00     0.000 C
ATOM     46  O5  IDS F   3     -16.579  47.729 172.8240  0.00  0.00     0.000 O
ATOM     47   O  IDS F   3     -17.739  52.160 175.5060  0.00  0.00     0.000 OA
ATOM     48   O  IDS F   3     -17.979  50.262 176.8990  0.00  0.00     0.000 OA
ATOM     49   O  IDS F   3     -15.805  51.022 176.1910  0.00  0.00     0.000 OA
ATOM     50   O  IDS F   3     -17.218  50.022 174.6390  0.00  0.00     0.000 O
ATOM     51   S  IDS F   3     -17.186  50.912 175.8900  0.00  0.00     0.000 S
ATOM     52   O  IDS F   3     -15.981  50.832 171.2610  0.00  0.00     0.000 O
ATOM     54  HD  IDS F   3     -15.985  50.862 172.1270  0.00  0.00     0.000 HD
ATOM     54   C  IDS F   3     -17.692  46.943 170.8240  0.00  0.00     0.000 C
ATOM     55   O  IDS F   3     -18.249  46.052 171.4590  0.00  0.00     0.000 OA
ATOM     56   O  IDS F   3     -17.716  46.868 169.5880  0.00  0.00     0.000 OA
BRANCH 41 57
ATOM     57  O4  SGN F   4     -14.459  48.751 172.7540  0.00  0.00     0.000 O
BRANCH 57 61
ATOM     58  C1  SGN F   4     -10.754  47.053 173.1270  0.00  0.00     0.000 C
ATOM     59  C2  SGN F   4     -11.734  46.344 172.1790  0.00  0.00     0.000 C
ATOM     60  C3  SGN F   4     -12.897  47.246 171.8050  0.00  0.00     0.000 C
ATOM     61  C4  SGN F   4     -13.530  47.775 173.0910  0.00  0.00     0.000 C
ATOM     62  C5  SGN F   4     -12.451  48.410 173.9910  0.00  0.00     0.000 C
ATOM     63  O5  SGN F   4     -11.435  47.495 174.2690  0.00  0.00     0.000 O
ATOM     64   N  SGN F   4     -11.044  45.854 171.0010  0.00  0.00     0.000 N
ATOM     66  HD  SGN F   4     -11.040  45.897 171.8660  0.00  0.00     0.000 HD
ATOM     66   S  SGN F   4     -10.351  44.381 171.0910  0.00  0.00     0.000 S
ATOM     67   O  SGN F   4      -9.237  44.517 172.0110  0.00  0.00     0.000 OA
ATOM     68   O  SGN F   4     -11.352  43.434 171.5800  0.00  0.00     0.000 OA
ATOM     69   O  SGN F   4      -9.922  44.133 169.7340  0.00  0.00     0.000 OA
ATOM     70   O  SGN F   4     -13.881  46.496 171.1080  0.00  0.00     0.000 O
ATOM     72  HD  SGN F   4     -13.877  46.540 171.9730  0.00  0.00     0.000 HD
ATOM     72   C  SGN F   4     -12.949  48.850 175.3430  0.00  0.00     0.000 C
ATOM     73   O  SGN F   4     -13.460  47.710 175.9940  0.00  0.00     0.000 O
ATOM     74   S  SGN F   4     -13.469  47.479 177.5330  0.00  0.00     0.000 S
ATOM     75   O  SGN F   4     -13.642  48.739 178.1770  0.00  0.00     0.000 OA
ATOM     76   O  SGN F   4     -14.570  46.562 177.8240  0.00  0.00     0.000 OA
ATOM     77   O  SGN F   4     -12.183  46.965 177.8000  0.00  0.00     0.000 OA
BRANCH 58 78
ATOM     78  O4  IDS F   5     -10.104  48.115 172.4710  0.00  0.00     0.000 O
BRANCH 78 82
ATOM     79  C1  IDS F   5      -7.935  50.547 171.2360  0.00  0.00     0.000 C
ATOM     80  C2  IDS F   5      -8.221  49.277 170.4480  0.00  0.00     0.000 C
ATOM     81  C3  IDS F   5      -8.011  48.020 171.2950  0.00  0.00     0.000 C
ATOM     82  C4  IDS F   5      -8.719  48.153 172.6610  0.00  0.00     0.000 C
ATOM     83  C5  IDS F   5      -8.332  49.479 173.3170  0.00  0.00     0.000 C
ATOM     84  O5  IDS F   5      -8.626  50.561 172.4580  0.00  0.00     0.000 O
ATOM     85   O  IDS F   5      -6.543  50.654 171.4010  0.00  0.00     0.000 OA
ATOM     86   O  IDS F   5      -9.566  49.300 170.0570  0.00  0.00     0.000 O
ATOM     87   S  IDS F   5     -10.256  48.455 168.9370  0.00  0.00     0.000 S
ATOM     88   O  IDS F   5      -9.558  47.199 168.8580  0.00  0.00     0.000 OA
ATOM     89   O  IDS F   5     -11.631  48.288 169.3500  0.00  0.00     0.000 OA
ATOM     90   O  IDS F   5     -10.099  49.232 167.7370  0.00  0.00     0.000 OA
ATOM     91   O  IDS F   5      -6.623  47.862 171.5120  0.00  0.00     0.000 O
ATOM     93  HD  IDS F   5      -6.549  48.147 172.3260  0.00  0.00     0.000 HD
ATOM     93   O  IDS F   5      -9.734  50.582 174.8860  0.00  0.00     0.000 OA
ATOM     94   O  IDS F   5      -8.662  48.968 175.6220  0.00  0.00     0.000 OA
ATOM     95   C  IDS F   5      -8.945  49.693 174.6880  0.00  0.00     0.000 C
ENDBRANCH 78 82
ENDBRANCH 58 78
ENDBRANCH 57 61
ENDBRANCH 41 57
ENDBRANCH 40 44
ENDBRANCH 20 40
ENDBRANCH 19 23
ENDBRANCH 1 19
TORSDOF 8
ENDMDL
MODEL 22
REMARK VINA RESULT:      -6.5      2.121      3.211
FFDIST PL LJ 2322 74 36 -1
ROOT
ATOM      1  C1  IDS F   1     -10.690  47.961 172.2020  0.00  0.00     0.000 C
ATOM      2  C2  IDS F   1     -10.290  47.382 170.8350  0.00  0.00     0.000 C
ATOM      3  C3  IDS F   1      -9.711  48.444 169.8690  0.00  0.00     0.000 C
ATOM      4  C4  IDS F   1      -8.816  49.499 170.5600  0.00  0.00     0.000 C
ATOM      5  C5  IDS F   1      -9.394  49.875 171.9280  0.00  0.00     0.000 C
ATOM      6  O5  IDS F   1      -9.623  48.733 172.6850  0.00  0.00     0.000 O
ATOM      7   S  IDS F   1      -8.870  45.249 169.9790  0.00  0.00     0.000 S
ATOM      8   O  IDS F   1      -8.627  45.934 168.7460  0.00  0.00     0.000 OA
ATOM      9   O  IDS F   1      -7.672  44.637 170.4760  0.00  0.00     0.000 OA
ATOM     10   O  IDS F   1      -9.990  44.340 169.9160  0.00  0.00     0.000 OA
ATOM     11   O  IDS F   1      -9.300  46.387 171.0010  0.00  0.00     0.000 O
ATOM     12   O  IDS F   1     -10.791  49.119 169.2290  0.00  0.00     0.000 O
ATOM     14  HD  IDS F   1     -10.823  49.945 168.9700  0.00  0.00     0.000 HD
ATOM     14   O  IDS F   1      -7.542  48.926 170.7260  0.00  0.00     0.000 O
ATOM     16  HD  IDS F   1      -7.575  49.751 170.4670  0.00  0.00     0.000 HD
ATOM     16   O  IDS F   1      -8.472  50.712 173.9570  0.00  0.00     0.000 OA
ATOM     17   O  IDS F   1      -8.075  51.849 172.2470  0.00  0.00     0.000 OA
ATOM     18   C  IDS F   1      -8.598  50.868 172.7500  0.00  0.00     0.000 C
ENDROOT
BRANCH 1 19
ATOM     19  O4  SGN F   2     -10.902  46.917 173.0900  0.00  0.00     0.000 O
BRANCH 19 23
ATOM     20  C1  SGN F   2     -14.495  47.701 175.0560  0.00  0.00     0.000 C
ATOM     21  C2  SGN F   2     -13.236  47.992 175.8570  0.00  0.00     0.000 C
ATOM     22  C3  SGN F   2     -12.033  48.211 174.9270  0.00  0.00     0.000 C
ATOM     23  C4  SGN F   2     -11.919  46.910 174.0690  0.00  0.00     0.000 C
ATOM     24  C5  SGN F   2     -13.209  46.776 173.3310  0.00  0.00     0.000 C
ATOM     25  O5  SGN F   2     -14.263  46.599 174.2230  0.00  0.00     0.000 O
ATOM     26   N  SGN F   2     -13.516  49.094 176.8080  0.00  0.00     0.000 N
ATOM     28  HD  SGN F   2     -13.106  49.817 177.0520  0.00  0.00     0.000 HD
ATOM     28   S  SGN F   2     -14.267  48.699 178.2530  0.00  0.00     0.000 S
ATOM     29   O  SGN F   2     -15.418  47.884 177.9350  0.00  0.00     0.000 OA
ATOM     30   O  SGN F   2     -13.266  47.972 179.0010  0.00  0.00     0.000 OA
ATOM     31   O  SGN F   2     -14.601  49.921 178.8890  0.00  0.00     0.000 OA
ATOM     32   O  SGN F   2     -10.872  48.385 175.7310  0.00  0.00     0.000 O
ATOM     34  HD  SGN F   2     -10.463  49.108 175.9750  0.00  0.00     0.000 HD
ATOM     34   C  SGN F   2     -13.225  45.596 172.4190  0.00  0.00     0.000 C
ATOM     35   O  SGN F   2     -12.914  44.510 173.2230  0.00  0.00     0.000 O
ATOM     36   S  SGN F   2     -12.971  43.035 172.8400  0.00  0.00     0.000 S
ATOM     37   O  SGN F   2     -11.653  42.528 173.1290  0.00  0.00     0.000 OA
ATOM     38   O  SGN F   2     -14.021  42.488 173.6720  0.00  0.00     0.000 OA
ATOM     39   O  SGN F   2     -13.300  42.974 171.4210  0.00  0.00     0.000 OA
BRANCH 20 40
ATOM     40  O4  IDS F   3     -14.892  48.811 174.2970  0.00  0.00     0.000 O
BRANCH 40 44
ATOM     41  C1  IDS F   3     -15.909  52.066 173.5430  0.00  0.00     0.000 C
ATOM     42  C2  IDS F   3     -15.172  51.785 174.8280  0.00  0.00     0.000 C
ATOM     43  C3  IDS F   3     -15.792  50.581 175.6350  0.00  0.00     0.000 C
ATOM     44  C4  IDS F   3     -16.109  49.403 174.7340  0.00  0.00     0.000 C
ATOM     45  C5  IDS F   3     -16.911  49.896 173.5300  0.00  0.00     0.000 C
ATOM     46  O5  IDS F   3     -16.167  50.856 172.8150  0.00  0.00     0.000 O
ATOM     47   O  IDS F   3     -12.305  51.796 176.3330  0.00  0.00     0.000 OA
ATOM     48   O  IDS F   3     -11.492  52.042 174.1250  0.00  0.00     0.000 OA
ATOM     49   O  IDS F   3     -13.020  53.643 175.0750  0.00  0.00     0.000 OA
ATOM     50   O  IDS F   3     -13.798  51.524 174.5180  0.00  0.00     0.000 O
ATOM     51   S  IDS F   3     -12.576  52.297 175.0340  0.00  0.00     0.000 S
ATOM     52   O  IDS F   3     -17.018  50.989 176.2330  0.00  0.00     0.000 O
ATOM     54  HD  IDS F   3     -16.299  51.425 176.0260  0.00  0.00     0.000 HD
ATOM     54   C  IDS F   3     -17.417  48.796 172.5900  0.00  0.00     0.000 C
ATOM     55   O  IDS F   3     -16.819  48.522 171.5520  0.00  0.00     0.000 OA
ATOM     56   O  IDS F   3     -18.436  48.145 172.8540  0.00  0.00     0.000 OA
BRANCH 41 57
ATOM     57  O4  SGN F   4     -17.081  52.766 173.8430  0.00  0.00     0.000 O
BRANCH 57 61
ATOM     58  C1  SGN F   4     -19.380  55.601 171.9910  0.00  0.00     0.000 C
ATOM     59  C2  SGN F   4     -19.679  54.138 171.6240  0.00  0.00     0.000 C
ATOM     60  C3  SGN F   4     -19.074  53.178 172.6340  0.00  0.00     0.000 C
ATOM     61  C4  SGN F   4     -17.590  53.504 172.7810  0.00  0.00     0.000 C
ATOM     62  C5  SGN F   4     -17.404  55.003 173.0880  0.00  0.00     0.000 C
ATOM     63  O5  SGN F   4     -17.997  55.790 172.1000  0.00  0.00     0.000 O
ATOM     64   N  SGN F   4     -21.106  53.927 171.4800  0.00  0.00     0.000 N
ATOM     66  HD  SGN F   4     -20.432  54.427 171.2670  0.00  0.00     0.000 HD
ATOM     66   S  SGN F   4     -21.771  54.236 170.0240  0.00  0.00     0.000 S
ATOM     67   O  SGN F   4     -21.699  55.675 169.8470  0.00  0.00     0.000 OA
ATOM     68   O  SGN F   4     -21.000  53.521 169.0080  0.00  0.00     0.000 OA
ATOM     69   O  SGN F   4     -23.129  53.763 170.1720  0.00  0.00     0.000 OA
ATOM     70   O  SGN F   4     -19.186  51.846 172.1540  0.00  0.00     0.000 O
ATOM     72  HD  SGN F   4     -18.512  52.346 171.9410  0.00  0.00     0.000 HD
ATOM     72   C  SGN F   4     -15.968  55.457 173.1270  0.00  0.00     0.000 C
ATOM     73   O  SGN F   4     -15.407  55.186 171.8630  0.00  0.00     0.000 O
ATOM     74   S  SGN F   4     -14.266  56.002 171.1900  0.00  0.00     0.000 S
ATOM     75   O  SGN F   4     -13.392  56.480 172.2100  0.00  0.00     0.000 OA
ATOM     76   O  SGN F   4     -13.581  55.101 170.2640  0.00  0.00     0.000 OA
ATOM     77   O  SGN F   4     -14.941  57.079 170.5790  0.00  0.00     0.000 OA
BRANCH 58 78
ATOM     78  O4  IDS F   5     -20.045  55.964 173.1770  0.00  0.00     0.000 O
BRANCH 78 82
ATOM     79  C1  IDS F   5     -21.583  57.602 175.8410  0.00  0.00     0.000 C
ATOM     80  C2  IDS F   5     -22.356  56.621 174.9700  0.00  0.00     0.000 C
ATOM     81  C3  IDS F   5     -22.216  56.946 173.4810  0.00  0.00     0.000 C
ATOM     82  C4  IDS F   5     -20.736  57.177 173.1060  0.00  0.00     0.000 C
ATOM     83  C5  IDS F   5     -20.107  58.179 174.0760  0.00  0.00     0.000 C
ATOM     84  O5  IDS F   5     -20.254  57.737 175.4090  0.00  0.00     0.000 O
ATOM     85   O  IDS F   5     -22.277  58.824 175.8430  0.00  0.00     0.000 OA
ATOM     86   O  IDS F   5     -21.820  55.343 175.1730  0.00  0.00     0.000 O
ATOM     87   S  IDS F   5     -22.471  53.963 174.8310  0.00  0.00     0.000 S
ATOM     88   O  IDS F   5     -23.313  54.161 173.6810  0.00  0.00     0.000 OA
ATOM     89   O  IDS F   5     -21.376  53.061 174.5550  0.00  0.00     0.000 OA
ATOM     90   O  IDS F   5     -23.233  53.613 176.0000  0.00  0.00     0.000 OA
ATOM     91   O  IDS F   5     -22.945  58.128 173.2190  0.00  0.00     0.000 O
ATOM     93  HD  IDS F   5     -22.306  58.711 173.1730  0.00  0.00     0.000 HD
ATOM     93   O  IDS F   5     -17.777  58.213 174.5380  0.00  0.00     0.000 OA
ATOM     94   O  IDS F   5     -18.346  59.072 172.7390  0.00  0.00     0.000 OA
ATOM     95   C  IDS F   5     -18.657  58.508 173.7710  0.00  0.00     0.000 C
ENDBRANCH 78 82
ENDBRANCH 58 78
ENDBRANCH 57 61
ENDBRANCH 41 57
ENDBRANCH 40 44
ENDBRANCH 20 40
ENDBRANCH 19 23
ENDBRANCH 1 19
TORSDOF 8
ENDMDL
MODEL 23
REMARK VINA RESULT:      -6.4      4.405     13.062
FFDIST PL LJ 2322 74 36 -1
ROOT
ATOM      1  C1  IDS F   1     -20.965  45.469 172.2140  0.00  0.00     0.000 C
ATOM      2  C2  IDS F   1     -21.474  44.885 170.8860  0.00  0.00     0.000 C
ATOM      3  C3  IDS F   1     -21.269  43.355 170.7750  0.00  0.00     0.000 C
ATOM      4  C4  IDS F   1     -21.501  42.593 172.1000  0.00  0.00     0.000 C
ATOM      5  C5  IDS F   1     -20.955  43.401 173.2820  0.00  0.00     0.000 C
ATOM      6  O5  IDS F   1     -21.474  44.690 173.2640  0.00  0.00     0.000 O
ATOM      7   S  IDS F   1     -23.737  45.091 169.4240  0.00  0.00     0.000 S
ATOM      8   O  IDS F   1     -23.434  43.830 168.8190  0.00  0.00     0.000 OA
ATOM      9   O  IDS F   1     -25.118  45.163 169.8060  0.00  0.00     0.000 OA
ATOM     10   O  IDS F   1     -23.304  46.222 168.6370  0.00  0.00     0.000 OA
ATOM     11   O  IDS F   1     -22.859  45.130 170.7480  0.00  0.00     0.000 O
ATOM     12   O  IDS F   1     -19.937  43.101 170.3360  0.00  0.00     0.000 O
ATOM     14  HD  IDS F   1     -19.429  42.430 170.5390  0.00  0.00     0.000 HD
ATOM     14   O  IDS F   1     -22.888  42.417 172.2470  0.00  0.00     0.000 O
ATOM     16  HD  IDS F   1     -22.380  41.746 172.4500  0.00  0.00     0.000 HD
ATOM     16   O  IDS F   1     -21.467  43.515 175.6050  0.00  0.00     0.000 OA
ATOM     17   O  IDS F   1     -20.994  41.612 174.8750  0.00  0.00     0.000 OA
ATOM     18   C  IDS F   1     -21.153  42.803 174.6610  0.00  0.00     0.000 C
ENDROOT
BRANCH 1 19
ATOM     19  O4  SGN F   2     -21.456  46.758 172.3580  0.00  0.00     0.000 O
BRANCH 19 23
ATOM     20  C1  SGN F   2     -18.145  49.211 173.0000  0.00  0.00     0.000 C
ATOM     21  C2  SGN F   2     -19.021  48.964 174.2180  0.00  0.00     0.000 C
ATOM     22  C3  SGN F   2     -19.839  47.675 174.0530  0.00  0.00     0.000 C
ATOM     23  C4  SGN F   2     -20.666  47.863 172.7410  0.00  0.00     0.000 C
ATOM     24  C5  SGN F   2     -19.676  48.070 171.6430  0.00  0.00     0.000 C
ATOM     25  O5  SGN F   2     -18.953  49.240 171.8560  0.00  0.00     0.000 O
ATOM     26   N  SGN F   2     -18.179  49.033 175.4370  0.00  0.00     0.000 N
ATOM     28  HD  SGN F   2     -18.096  48.559 176.1570  0.00  0.00     0.000 HD
ATOM     28   S  SGN F   2     -17.845  50.551 176.0640  0.00  0.00     0.000 S
ATOM     29   O  SGN F   2     -17.379  51.378 174.9730  0.00  0.00     0.000 OA
ATOM     30   O  SGN F   2     -19.105  51.010 176.6040  0.00  0.00     0.000 OA
ATOM     31   O  SGN F   2     -16.879  50.370 177.0850  0.00  0.00     0.000 OA
ATOM     32   O  SGN F   2     -20.703  47.546 175.1760  0.00  0.00     0.000 O
ATOM     34  HD  SGN F   2     -20.620  47.071 175.8960  0.00  0.00     0.000 HD
ATOM     34   C  SGN F   2     -20.325  48.211 170.3070  0.00  0.00     0.000 C
ATOM     35   O  SGN F   2     -21.237  49.246 170.4530  0.00  0.00     0.000 O
ATOM     36   S  SGN F   2     -22.042  49.925 169.3500  0.00  0.00     0.000 S
ATOM     37   O  SGN F   2     -23.415  49.808 169.7710  0.00  0.00     0.000 OA
ATOM     38   O  SGN F   2     -21.536  51.280 169.3210  0.00  0.00     0.000 OA
ATOM     39   O  SGN F   2     -21.766  49.203 168.1140  0.00  0.00     0.000 OA
BRANCH 20 40
ATOM     40  O4  IDS F   3     -17.151  48.231 172.8710  0.00  0.00     0.000 O
BRANCH 40 44
ATOM     41  C1  IDS F   3     -14.248  46.317 172.5520  0.00  0.00     0.000 C
ATOM     42  C2  IDS F   3     -14.895  46.486 173.9040  0.00  0.00     0.000 C
ATOM     43  C3  IDS F   3     -15.205  47.993 174.2470  0.00  0.00     0.000 C
ATOM     44  C4  IDS F   3     -15.831  48.720 173.0710  0.00  0.00     0.000 C
ATOM     45  C5  IDS F   3     -14.987  48.470 171.8220  0.00  0.00     0.000 C
ATOM     46  O5  IDS F   3     -14.926  47.088 171.5490  0.00  0.00     0.000 O
ATOM     47   O  IDS F   3     -16.888  45.192 176.1020  0.00  0.00     0.000 OA
ATOM     48   O  IDS F   3     -17.460  43.771 174.2990  0.00  0.00     0.000 OA
ATOM     49   O  IDS F   3     -15.194  43.914 175.1030  0.00  0.00     0.000 OA
ATOM     50   O  IDS F   3     -16.097  45.708 173.9330  0.00  0.00     0.000 O
ATOM     51   S  IDS F   3     -16.434  44.572 174.9100  0.00  0.00     0.000 S
ATOM     52   O  IDS F   3     -13.992  48.671 174.5580  0.00  0.00     0.000 O
ATOM     54  HD  IDS F   3     -14.237  47.845 174.6490  0.00  0.00     0.000 HD
ATOM     54   C  IDS F   3     -15.423  49.247 170.5750  0.00  0.00     0.000 C
ATOM     55   O  IDS F   3     -16.114  48.719 169.7060  0.00  0.00     0.000 OA
ATOM     56   O  IDS F   3     -15.102  50.431 170.4120  0.00  0.00     0.000 OA
BRANCH 41 57
ATOM     57  O4  SGN F   4     -12.895  46.655 172.6580  0.00  0.00     0.000 O
BRANCH 57 61
ATOM     58  C1  SGN F   4      -9.463  45.646 170.6710  0.00  0.00     0.000 C
ATOM     59  C2  SGN F   4     -10.231  46.860 170.1250  0.00  0.00     0.000 C
ATOM     60  C3  SGN F   4     -11.232  47.385 171.1390  0.00  0.00     0.000 C
ATOM     61  C4  SGN F   4     -12.117  46.225 171.5900  0.00  0.00     0.000 C
ATOM     62  C5  SGN F   4     -11.244  45.045 172.0600  0.00  0.00     0.000 C
ATOM     63  O5  SGN F   4     -10.365  44.645 171.0530  0.00  0.00     0.000 O
ATOM     64   N  SGN F   4      -9.314  47.899 169.6980  0.00  0.00     0.000 N
ATOM     66  HD  SGN F   4      -9.507  47.055 169.6600  0.00  0.00     0.000 HD
ATOM     66   S  SGN F   4      -8.733  47.813 168.1770  0.00  0.00     0.000 S
ATOM     67   O  SGN F   4      -7.855  46.658 168.1470  0.00  0.00     0.000 OA
ATOM     68   O  SGN F   4      -9.864  47.664 167.2630  0.00  0.00     0.000 OA
ATOM     69   O  SGN F   4      -8.016  49.059 168.0260  0.00  0.00     0.000 OA
ATOM     70   O  SGN F   4     -12.065  48.361 170.5300  0.00  0.00     0.000 O
ATOM     72  HD  SGN F   4     -12.258  47.518 170.4920  0.00  0.00     0.000 HD
ATOM     72   C  SGN F   4     -12.018  43.799 172.4080  0.00  0.00     0.000 C
ATOM     73   O  SGN F   4     -12.719  43.404 171.2510  0.00  0.00     0.000 O
ATOM     74   S  SGN F   4     -13.093  41.940 170.8800  0.00  0.00     0.000 S
ATOM     75   O  SGN F   4     -13.348  41.221 172.0840  0.00  0.00     0.000 OA
ATOM     76   O  SGN F   4     -14.275  42.002 170.0210  0.00  0.00     0.000 OA
ATOM     77   O  SGN F   4     -11.930  41.448 170.2520  0.00  0.00     0.000 OA
BRANCH 58 78
ATOM     78  O4  IDS F   5      -8.628  46.023 171.7400  0.00  0.00     0.000 O
BRANCH 78 82
ATOM     79  C1  IDS F   5      -6.177  46.335 174.1990  0.00  0.00     0.000 C
ATOM     80  C2  IDS F   5      -6.267  47.328 173.0480  0.00  0.00     0.000 C
ATOM     81  C3  IDS F   5      -6.303  46.625 171.6890  0.00  0.00     0.000 C
ATOM     82  C4  IDS F   5      -7.340  45.481 171.6890  0.00  0.00     0.000 C
ATOM     83  C5  IDS F   5      -7.117  44.581 172.9060  0.00  0.00     0.000 C
ATOM     84  O5  IDS F   5      -7.163  45.339 174.0970  0.00  0.00     0.000 O
ATOM     85   O  IDS F   5      -4.875  45.806 174.2180  0.00  0.00     0.000 OA
ATOM     86   O  IDS F   5      -7.463  48.044 173.1830  0.00  0.00     0.000 O
ATOM     87   S  IDS F   5      -7.850  49.403 172.5120  0.00  0.00     0.000 S
ATOM     88   O  IDS F   5      -7.174  49.462 171.2440  0.00  0.00     0.000 OA
ATOM     89   O  IDS F   5      -9.288  49.381 172.3630  0.00  0.00     0.000 OA
ATOM     90   O  IDS F   5      -7.375  50.412 173.4210  0.00  0.00     0.000 OA
ATOM     91   O  IDS F   5      -5.022  46.083 171.4400  0.00  0.00     0.000 O
ATOM     93  HD  IDS F   5      -5.158  45.247 171.6210  0.00  0.00     0.000 HD
ATOM     93   O  IDS F   5      -8.864  43.296 173.8760  0.00  0.00     0.000 OA
ATOM     94   O  IDS F   5      -8.044  42.524 172.1350  0.00  0.00     0.000 OA
ATOM     95   C  IDS F   5      -8.064  43.398 172.9810  0.00  0.00     0.000 C
ENDBRANCH 78 82
ENDBRANCH 58 78
ENDBRANCH 57 61
ENDBRANCH 41 57
ENDBRANCH 40 44
ENDBRANCH 20 40
ENDBRANCH 19 23
ENDBRANCH 1 19
TORSDOF 8
ENDMDL
MODEL 24
REMARK VINA RESULT:      -6.4      4.705      9.697
FFDIST PL LJ 2322 74 36 -1
ROOT
ATOM      1  C1  IDS F   1      -8.702  52.843 173.0590  0.00  0.00     0.000 C
ATOM      2  C2  IDS F   1      -8.345  54.314 172.7880  0.00  0.00     0.000 C
ATOM      3  C3  IDS F   1      -6.839  54.533 172.5050  0.00  0.00     0.000 C
ATOM      4  C4  IDS F   1      -6.187  53.407 171.6690  0.00  0.00     0.000 C
ATOM      5  C5  IDS F   1      -6.745  52.042 172.0870  0.00  0.00     0.000 C
ATOM      6  O5  IDS F   1      -8.134  52.056 172.0470  0.00  0.00     0.000 O
ATOM      7   S  IDS F   1      -9.334  56.290 171.2340  0.00  0.00     0.000 S
ATOM      8   O  IDS F   1      -8.052  56.927 171.2680  0.00  0.00     0.000 OA
ATOM      9   O  IDS F   1      -9.872  56.281 169.9040  0.00  0.00     0.000 OA
ATOM     10   O  IDS F   1     -10.255  56.807 172.2180  0.00  0.00     0.000 OA
ATOM     11   O  IDS F   1      -9.053  54.786 171.6600  0.00  0.00     0.000 O
ATOM     12   O  IDS F   1      -6.148  54.629 173.7480  0.00  0.00     0.000 O
ATOM     14  HD  IDS F   1      -5.340  54.373 173.9280  0.00  0.00     0.000 HD
ATOM     14   O  IDS F   1      -6.498  53.651 170.3200  0.00  0.00     0.000 O
ATOM     16  HD  IDS F   1      -5.691  53.395 170.5000  0.00  0.00     0.000 HD
ATOM     16   O  IDS F   1      -7.001  49.939 171.0010  0.00  0.00     0.000 OA
ATOM     17   O  IDS F   1      -5.060  50.720 171.0140  0.00  0.00     0.000 OA
ATOM     18   C  IDS F   1      -6.236  50.838 171.3210  0.00  0.00     0.000 C
ENDROOT
BRANCH 1 19
ATOM     19  O4  SGN F   2     -10.080  52.695 172.9960  0.00  0.00     0.000 O
BRANCH 19 23
ATOM     20  C1  SGN F   2     -13.078  52.104 175.8350  0.00  0.00     0.000 C
ATOM     21  C2  SGN F   2     -13.165  53.407 175.0550  0.00  0.00     0.000 C
ATOM     22  C3  SGN F   2     -12.413  53.297 173.7200  0.00  0.00     0.000 C
ATOM     23  C4  SGN F   2     -10.945  52.910 174.0910  0.00  0.00     0.000 C
ATOM     24  C5  SGN F   2     -11.024  51.612 174.8230  0.00  0.00     0.000 C
ATOM     25  O5  SGN F   2     -11.730  51.767 176.0120  0.00  0.00     0.000 O
ATOM     26   N  SGN F   2     -14.587  53.812 174.9550  0.00  0.00     0.000 N
ATOM     28  HD  SGN F   2     -15.101  54.107 174.3230  0.00  0.00     0.000 HD
ATOM     28   S  SGN F   2     -15.256  54.623 176.2590  0.00  0.00     0.000 S
ATOM     29   O  SGN F   2     -14.938  53.867 177.4500  0.00  0.00     0.000 OA
ATOM     30   O  SGN F   2     -14.624  55.923 176.2470  0.00  0.00     0.000 OA
ATOM     31   O  SGN F   2     -16.648  54.722 176.0110  0.00  0.00     0.000 OA
ATOM     32   O  SGN F   2     -12.450  54.567 173.0800  0.00  0.00     0.000 O
ATOM     34  HD  SGN F   2     -12.964  54.862 172.4490  0.00  0.00     0.000 HD
ATOM     34   C  SGN F   2      -9.679  51.085 175.1970  0.00  0.00     0.000 C
ATOM     35   O  SGN F   2      -9.073  52.107 175.9120  0.00  0.00     0.000 O
ATOM     36   S  SGN F   2      -7.759  52.037 176.6840  0.00  0.00     0.000 S
ATOM     37   O  SGN F   2      -6.958  53.106 176.1450  0.00  0.00     0.000 OA
ATOM     38   O  SGN F   2      -8.146  52.214 178.0660  0.00  0.00     0.000 OA
ATOM     39   O  SGN F   2      -7.186  50.720 176.4330  0.00  0.00     0.000 OA
BRANCH 20 40
ATOM     40  O4  IDS F   3     -13.758  51.066 175.1830  0.00  0.00     0.000 O
BRANCH 40 44
ATOM     41  C1  IDS F   3     -15.579  48.227 174.2770  0.00  0.00     0.000 C
ATOM     42  C2  IDS F   3     -16.093  49.598 173.9180  0.00  0.00     0.000 C
ATOM     43  C3  IDS F   3     -16.104  50.585 175.1480  0.00  0.00     0.000 C
ATOM     44  C4  IDS F   3     -14.817  50.503 175.9470  0.00  0.00     0.000 C
ATOM     45  C5  IDS F   3     -14.515  49.038 176.2590  0.00  0.00     0.000 C
ATOM     46  O5  IDS F   3     -14.378  48.308 175.0600  0.00  0.00     0.000 O
ATOM     47   O  IDS F   3     -16.290  51.871 171.6220  0.00  0.00     0.000 OA
ATOM     48   O  IDS F   3     -14.617  50.548 170.5980  0.00  0.00     0.000 OA
ATOM     49   O  IDS F   3     -16.773  49.625 171.1470  0.00  0.00     0.000 OA
ATOM     50   O  IDS F   3     -15.283  50.126 172.8610  0.00  0.00     0.000 O
ATOM     51   S  IDS F   3     -15.761  50.564 171.4690  0.00  0.00     0.000 S
ATOM     52   O  IDS F   3     -17.166  50.236 176.0300  0.00  0.00     0.000 O
ATOM     54  HD  IDS F   3     -17.070  50.151 175.1730  0.00  0.00     0.000 HD
ATOM     54   C  IDS F   3     -13.309  48.802 177.1740  0.00  0.00     0.000 C
ATOM     55   O  IDS F   3     -12.211  48.498 176.7130  0.00  0.00     0.000 OA
ATOM     56   O  IDS F   3     -13.402  48.922 178.4030  0.00  0.00     0.000 OA
BRANCH 41 57
ATOM     57  O4  SGN F   4     -16.594  47.525 174.9340  0.00  0.00     0.000 O
BRANCH 57 61
ATOM     58  C1  SGN F   4     -17.594  43.557 174.9710  0.00  0.00     0.000 C
ATOM     59  C2  SGN F   4     -16.992  44.118 176.2690  0.00  0.00     0.000 C
ATOM     60  C3  SGN F   4     -17.034  45.636 176.2910  0.00  0.00     0.000 C
ATOM     61  C4  SGN F   4     -16.380  46.155 175.0120  0.00  0.00     0.000 C
ATOM     62  C5  SGN F   4     -17.018  45.484 173.7800  0.00  0.00     0.000 C
ATOM     63  O5  SGN F   4     -16.923  44.095 173.8660  0.00  0.00     0.000 O
ATOM     64   N  SGN F   4     -17.655  43.553 177.4290  0.00  0.00     0.000 N
ATOM     66  HD  SGN F   4     -17.277  43.384 176.6680  0.00  0.00     0.000 HD
ATOM     66   S  SGN F   4     -17.096  42.132 177.9990  0.00  0.00     0.000 S
ATOM     67   O  SGN F   4     -17.428  41.138 176.9960  0.00  0.00     0.000 OA
ATOM     68   O  SGN F   4     -15.652  42.253 178.1920  0.00  0.00     0.000 OA
ATOM     69   O  SGN F   4     -17.840  41.951 179.2260  0.00  0.00     0.000 OA
ATOM     70   O  SGN F   4     -16.285  46.121 177.3960  0.00  0.00     0.000 O
ATOM     72  HD  SGN F   4     -15.907  45.952 176.6350  0.00  0.00     0.000 HD
ATOM     72   C  SGN F   4     -16.358  45.832 172.4710  0.00  0.00     0.000 C
ATOM     73   O  SGN F   4     -15.012  45.421 172.5570  0.00  0.00     0.000 O
ATOM     74   S  SGN F   4     -14.134  44.954 171.3600  0.00  0.00     0.000 S
ATOM     75   O  SGN F   4     -14.528  45.683 170.2000  0.00  0.00     0.000 OA
ATOM     76   O  SGN F   4     -12.742  45.215 171.7210  0.00  0.00     0.000 OA
ATOM     77   O  SGN F   4     -14.464  43.590 171.2180  0.00  0.00     0.000 OA
BRANCH 58 78
ATOM     78  O4  IDS F   5     -18.976  43.814 174.9100  0.00  0.00     0.000 O
BRANCH 78 82
ATOM     79  C1  IDS F   5     -22.394  43.833 174.2250  0.00  0.00     0.000 C
ATOM     80  C2  IDS F   5     -21.878  43.632 175.6430  0.00  0.00     0.000 C
ATOM     81  C3  IDS F   5     -20.831  42.518 175.7170  0.00  0.00     0.000 C
ATOM     82  C4  IDS F   5     -19.762  42.694 174.6180  0.00  0.00     0.000 C
ATOM     83  C5  IDS F   5     -20.442  42.889 173.2610  0.00  0.00     0.000 C
ATOM     84  O5  IDS F   5     -21.339  43.979 173.3090  0.00  0.00     0.000 O
ATOM     85   O  IDS F   5     -23.236  42.753 173.9100  0.00  0.00     0.000 OA
ATOM     86   O  IDS F   5     -21.258  44.819 176.0530  0.00  0.00     0.000 O
ATOM     87   S  IDS F   5     -20.912  45.268 177.5100  0.00  0.00     0.000 S
ATOM     88   O  IDS F   5     -20.650  44.077 178.2750  0.00  0.00     0.000 OA
ATOM     89   O  IDS F   5     -19.745  46.115 177.4030  0.00  0.00     0.000 OA
ATOM     90   O  IDS F   5     -22.089  45.955 177.9750  0.00  0.00     0.000 OA
ATOM     91   O  IDS F   5     -21.490  41.282 175.5230  0.00  0.00     0.000 O
ATOM     93  HD  IDS F   5     -21.282  41.112 174.6990  0.00  0.00     0.000 HD
ATOM     93   O  IDS F   5     -19.404  44.060 171.4730  0.00  0.00     0.000 OA
ATOM     94   O  IDS F   5     -18.742  42.119 171.7780  0.00  0.00     0.000 OA
ATOM     95   C  IDS F   5     -19.475  43.034 172.1010  0.00  0.00     0.000 C
ENDBRANCH 78 82
ENDBRANCH 58 78
ENDBRANCH 57 61
ENDBRANCH 41 57
ENDBRANCH 40 44
ENDBRANCH 20 40
ENDBRANCH 19 23
ENDBRANCH 1 19
TORSDOF 8
ENDMDL
MODEL 25
REMARK VINA RESULT:      -6.4      4.584      8.496
FFDIST PL LJ 2322 74 36 -1
ROOT
ATOM      1  C1  IDS F   1      -8.940  50.235 173.2590  0.00  0.00     0.000 C
ATOM      2  C2  IDS F   1      -9.812  50.478 174.5020  0.00  0.00     0.000 C
ATOM      3  C3  IDS F   1      -9.310  51.651 175.3790  0.00  0.00     0.000 C
ATOM      4  C4  IDS F   1      -8.757  52.847 174.5700  0.00  0.00     0.000 C
ATOM      5  C5  IDS F   1      -7.971  52.349 173.3520  0.00  0.00     0.000 C
ATOM      6  O5  IDS F   1      -8.743  51.463 172.6110  0.00  0.00     0.000 O
ATOM      7   S  IDS F   1     -12.458  50.720 174.9920  0.00  0.00     0.000 S
ATOM      8   O  IDS F   1     -12.148  51.455 176.1810  0.00  0.00     0.000 OA
ATOM      9   O  IDS F   1     -13.512  51.352 174.2530  0.00  0.00     0.000 OA
ATOM     10   O  IDS F   1     -12.694  49.316 175.2330  0.00  0.00     0.000 OA
ATOM     11   O  IDS F   1     -11.136  50.786 174.1140  0.00  0.00     0.000 O
ATOM     12   O  IDS F   1      -8.278  51.172 176.2380  0.00  0.00     0.000 O
ATOM     14  HD  IDS F   1      -7.586  51.603 176.5290  0.00  0.00     0.000 HD
ATOM     14   O  IDS F   1      -9.858  53.610 174.1430  0.00  0.00     0.000 O
ATOM     16  HD  IDS F   1      -9.165  54.042 174.4330  0.00  0.00     0.000 HD
ATOM     16   O  IDS F   1      -7.446  53.261 171.2170  0.00  0.00     0.000 OA
ATOM     17   O  IDS F   1      -6.885  54.427 172.8610  0.00  0.00     0.000 OA
ATOM     18   C  IDS F   1      -7.405  53.410 172.4300  0.00  0.00     0.000 C
ENDROOT
BRANCH 1 19
ATOM     19  O4  SGN F   2      -9.619  49.394 172.3900  0.00  0.00     0.000 O
BRANCH 19 23
ATOM     20  C1  SGN F   2     -10.343  45.287 172.3450  0.00  0.00     0.000 C
ATOM     21  C2  SGN F   2      -9.289  45.753 173.3370  0.00  0.00     0.000 C
ATOM     22  C3  SGN F   2      -9.478  47.238 173.6800  0.00  0.00     0.000 C
ATOM     23  C4  SGN F   2      -9.407  48.000 172.3170  0.00  0.00     0.000 C
ATOM     24  C5  SGN F   2     -10.507  47.453 171.4700  0.00  0.00     0.000 C
ATOM     25  O5  SGN F   2     -10.293  46.103 171.2080  0.00  0.00     0.000 O
ATOM     26   N  SGN F   2      -9.277  44.828 174.4950  0.00  0.00     0.000 N
ATOM     28  HD  SGN F   2      -9.252  44.918 175.3560  0.00  0.00     0.000 HD
ATOM     28   S  SGN F   2      -8.408  43.403 174.3400  0.00  0.00     0.000 S
ATOM     29   O  SGN F   2      -8.804  42.787 173.0930  0.00  0.00     0.000 OA
ATOM     30   O  SGN F   2      -7.023  43.816 174.3350  0.00  0.00     0.000 OA
ATOM     31   O  SGN F   2      -8.709  42.614 175.4780  0.00  0.00     0.000 OA
ATOM     32   O  SGN F   2      -8.414  47.639 174.5340  0.00  0.00     0.000 O
ATOM     34  HD  SGN F   2      -8.389  47.729 175.3950  0.00  0.00     0.000 HD
ATOM     34   C  SGN F   2     -10.598  48.132 170.1440  0.00  0.00     0.000 C
ATOM     35   O  SGN F   2      -9.334  48.010 169.5850  0.00  0.00     0.000 O
ATOM     36   S  SGN F   2      -8.920  48.367 168.1620  0.00  0.00     0.000 S
ATOM     37   O  SGN F   2      -7.818  49.283 168.3190  0.00  0.00     0.000 OA
ATOM     38   O  SGN F   2      -8.566  47.099 167.5630  0.00  0.00     0.000 OA
ATOM     39   O  SGN F   2     -10.076  48.981 167.5220  0.00  0.00     0.000 OA
BRANCH 20 40
ATOM     40  O4  IDS F   3     -11.627  45.311 172.9070  0.00  0.00     0.000 O
BRANCH 40 44
ATOM     41  C1  IDS F   3     -14.856  44.711 174.0940  0.00  0.00     0.000 C
ATOM     42  C2  IDS F   3     -13.678  44.010 174.7250  0.00  0.00     0.000 C
ATOM     43  C3  IDS F   3     -12.736  43.327 173.6610  0.00  0.00     0.000 C
ATOM     44  C4  IDS F   3     -12.462  44.242 172.4820  0.00  0.00     0.000 C
ATOM     45  C5  IDS F   3     -13.788  44.791 171.9570  0.00  0.00     0.000 C
ATOM     46  O5  IDS F   3     -14.448  45.510 172.9740  0.00  0.00     0.000 O
ATOM     47   O  IDS F   3     -11.542  44.017 177.1570  0.00  0.00     0.000 OA
ATOM     48   O  IDS F   3     -12.350  46.221 177.4540  0.00  0.00     0.000 OA
ATOM     49   O  IDS F   3     -13.833  44.326 177.5560  0.00  0.00     0.000 OA
ATOM     50   O  IDS F   3     -12.945  44.962 175.5040  0.00  0.00     0.000 O
ATOM     51   S  IDS F   3     -12.652  44.887 177.0090  0.00  0.00     0.000 S
ATOM     52   O  IDS F   3     -13.367  42.160 173.1450  0.00  0.00     0.000 O
ATOM     54  HD  IDS F   3     -13.419  42.558 173.9120  0.00  0.00     0.000 HD
ATOM     54   C  IDS F   3     -13.684  45.634 170.6810  0.00  0.00     0.000 C
ATOM     55   O  IDS F   3     -13.673  46.861 170.7290  0.00  0.00     0.000 OA
ATOM     56   O  IDS F   3     -13.598  45.102 169.5660  0.00  0.00     0.000 OA
BRANCH 41 57
ATOM     57  O4  SGN F   4     -15.812  43.753 173.7440  0.00  0.00     0.000 O
BRANCH 57 61
ATOM     58  C1  SGN F   4     -18.866  46.474 173.6310  0.00  0.00     0.000 C
ATOM     59  C2  SGN F   4     -18.612  45.795 174.9860  0.00  0.00     0.000 C
ATOM     60  C3  SGN F   4     -17.246  45.132 175.0270  0.00  0.00     0.000 C
ATOM     61  C4  SGN F   4     -17.124  44.205 173.8190  0.00  0.00     0.000 C
ATOM     62  C5  SGN F   4     -17.457  44.972 172.5250  0.00  0.00     0.000 C
ATOM     63  O5  SGN F   4     -18.729  45.539 172.5980  0.00  0.00     0.000 O
ATOM     64   N  SGN F   4     -18.774  46.741 176.0730  0.00  0.00     0.000 N
ATOM     66  HD  SGN F   4     -19.119  46.421 175.3460  0.00  0.00     0.000 HD
ATOM     66   S  SGN F   4     -20.277  46.954 176.6680  0.00  0.00     0.000 S
ATOM     67   O  SGN F   4     -21.032  47.622 175.6240  0.00  0.00     0.000 OA
ATOM     68   O  SGN F   4     -20.832  45.641 176.9900  0.00  0.00     0.000 OA
ATOM     69   O  SGN F   4     -20.060  47.799 177.8210  0.00  0.00     0.000 OA
ATOM     70   O  SGN F   4     -17.132  44.341 176.2010  0.00  0.00     0.000 O
ATOM     72  HD  SGN F   4     -17.477  44.021 175.4740  0.00  0.00     0.000 HD
ATOM     72   C  SGN F   4     -17.490  44.116 171.2860  0.00  0.00     0.000 C
ATOM     73   O  SGN F   4     -18.473  43.127 171.4840  0.00  0.00     0.000 O
ATOM     74   S  SGN F   4     -19.325  42.465 170.3630  0.00  0.00     0.000 S
ATOM     75   O  SGN F   4     -18.529  42.376 169.1840  0.00  0.00     0.000 OA
ATOM     76   O  SGN F   4     -19.728  41.147 170.8500  0.00  0.00     0.000 OA
ATOM     77   O  SGN F   4     -20.386  43.376 170.1710  0.00  0.00     0.000 OA
BRANCH 58 78
ATOM     78  O4  IDS F   5     -18.001  47.570 173.4510  0.00  0.00     0.000 O
BRANCH 78 82
ATOM     79  C1  IDS F   5     -16.388  50.541 172.6030  0.00  0.00     0.000 C
ATOM     80  C2  IDS F   5     -17.050  50.367 173.9630  0.00  0.00     0.000 C
ATOM     81  C3  IDS F   5     -18.498  49.889 173.8360  0.00  0.00     0.000 C
ATOM     82  C4  IDS F   5     -18.599  48.692 172.8670  0.00  0.00     0.000 C
ATOM     83  C5  IDS F   5     -17.884  49.025 171.5560  0.00  0.00     0.000 C
ATOM     84  O5  IDS F   5     -16.544  49.396 171.8040  0.00  0.00     0.000 O
ATOM     85   O  IDS F   5     -16.923  51.695 172.0020  0.00  0.00     0.000 OA
ATOM     86   O  IDS F   5     -16.343  49.385 174.6680  0.00  0.00     0.000 O
ATOM     87   S  IDS F   5     -16.364  49.104 176.2060  0.00  0.00     0.000 S
ATOM     88   O  IDS F   5     -17.670  49.466 176.6890  0.00  0.00     0.000 OA
ATOM     89   O  IDS F   5     -16.098  47.692 176.3600  0.00  0.00     0.000 OA
ATOM     90   O  IDS F   5     -15.337  49.953 176.7510  0.00  0.00     0.000 OA
ATOM     91   O  IDS F   5     -19.271  50.957 173.3270  0.00  0.00     0.000 O
ATOM     93  HD  IDS F   5     -19.359  50.718 172.5000  0.00  0.00     0.000 HD
ATOM     93   O  IDS F   5     -16.965  47.350 170.1450  0.00  0.00     0.000 OA
ATOM     94   O  IDS F   5     -19.021  47.588 170.0310  0.00  0.00     0.000 OA
ATOM     95   C  IDS F   5     -17.957  47.924 170.5150  0.00  0.00     0.000 C
ENDBRANCH 78 82
ENDBRANCH 58 78
ENDBRANCH 57 61
ENDBRANCH 41 57
ENDBRANCH 40 44
ENDBRANCH 20 40
ENDBRANCH 19 23
ENDBRANCH 1 19
TORSDOF 8
ENDMDL
MODEL 26
REMARK VINA RESULT:      -6.4      4.166     11.303
FFDIST PL LJ 2322 74 36 -1
ROOT
ATOM      1  C1  IDS F   1     -16.575  57.957 169.3560  0.00  0.00     0.000 C
ATOM      2  C2  IDS F   1     -17.808  58.460 168.5860  0.00  0.00     0.000 C
ATOM      3  C3  IDS F   1     -17.460  59.494 167.4880  0.00  0.00     0.000 C
ATOM      4  C4  IDS F   1     -16.142  59.192 166.7360  0.00  0.00     0.000 C
ATOM      5  C5  IDS F   1     -15.087  58.652 167.7080  0.00  0.00     0.000 C
ATOM      6  O5  IDS F   1     -15.597  57.578 168.4250  0.00  0.00     0.000 O
ATOM      7   S  IDS F   1     -19.943  57.314 167.3920  0.00  0.00     0.000 S
ATOM      8   O  IDS F   1     -20.079  58.478 166.5690  0.00  0.00     0.000 OA
ATOM      9   O  IDS F   1     -20.075  56.114 166.6170  0.00  0.00     0.000 OA
ATOM     10   O  IDS F   1     -20.795  57.337 168.5580  0.00  0.00     0.000 OA
ATOM     11   O  IDS F   1     -18.457  57.379 167.9490  0.00  0.00     0.000 O
ATOM     12   O  IDS F   1     -17.351  60.782 168.0890  0.00  0.00     0.000 O
ATOM     14  HD  IDS F   1     -16.830  61.434 167.8590  0.00  0.00     0.000 HD
ATOM     14   O  IDS F   1     -16.428  58.221 165.7610  0.00  0.00     0.000 O
ATOM     16  HD  IDS F   1     -15.907  58.873 165.5300  0.00  0.00     0.000 HD
ATOM     16   O  IDS F   1     -13.174  57.252 167.4840  0.00  0.00     0.000 OA
ATOM     17   O  IDS F   1     -13.206  58.942 166.2520  0.00  0.00     0.000 OA
ATOM     18   C  IDS F   1     -13.750  58.263 167.1080  0.00  0.00     0.000 C
ENDROOT
BRANCH 1 19
ATOM     19  O4  SGN F   2     -16.929  56.833 170.0890  0.00  0.00     0.000 O
BRANCH 19 23
ATOM     20  C1  SGN F   2     -16.960  55.322 173.9750  0.00  0.00     0.000 C
ATOM     21  C2  SGN F   2     -17.966  56.428 173.6970  0.00  0.00     0.000 C
ATOM     22  C3  SGN F   2     -18.270  56.526 172.1950  0.00  0.00     0.000 C
ATOM     23  C4  SGN F   2     -16.893  56.770 171.4980  0.00  0.00     0.000 C
ATOM     24  C5  SGN F   2     -16.032  55.601 171.8430  0.00  0.00     0.000 C
ATOM     25  O5  SGN F   2     -15.806  55.552 173.2150  0.00  0.00     0.000 O
ATOM     26   N  SGN F   2     -19.144  56.237 174.5760  0.00  0.00     0.000 N
ATOM     28  HD  SGN F   2     -20.003  56.262 174.4690  0.00  0.00     0.000 HD
ATOM     28   S  SGN F   2     -19.042  56.812 176.1460  0.00  0.00     0.000 S
ATOM     29   O  SGN F   2     -17.801  56.327 176.7060  0.00  0.00     0.000 OA
ATOM     30   O  SGN F   2     -19.061  58.252 176.0120  0.00  0.00     0.000 OA
ATOM     31   O  SGN F   2     -20.190  56.342 176.8310  0.00  0.00     0.000 OA
ATOM     32   O  SGN F   2     -19.140  57.632 171.9860  0.00  0.00     0.000 O
ATOM     34  HD  SGN F   2     -20.000  57.657 171.8800  0.00  0.00     0.000 HD
ATOM     34   C  SGN F   2     -14.690  55.669 171.1950  0.00  0.00     0.000 C
ATOM     35   O  SGN F   2     -14.164  56.895 171.5770  0.00  0.00     0.000 O
ATOM     36   S  SGN F   2     -12.743  57.398 171.3450  0.00  0.00     0.000 S
ATOM     37   O  SGN F   2     -12.905  58.655 170.6580  0.00  0.00     0.000 OA
ATOM     38   O  SGN F   2     -12.181  57.508 172.6730  0.00  0.00     0.000 OA
ATOM     39   O  SGN F   2     -12.062  56.396 170.5350  0.00  0.00     0.000 OA
BRANCH 20 40
ATOM     40  O4  IDS F   3     -17.490  54.056 173.6860  0.00  0.00     0.000 O
BRANCH 40 44
ATOM     41  C1  IDS F   3     -18.542  50.728 173.5940  0.00  0.00     0.000 C
ATOM     42  C2  IDS F   3     -19.094  51.664 174.6390  0.00  0.00     0.000 C
ATOM     43  C3  IDS F   3     -17.965  52.457 175.4030  0.00  0.00     0.000 C
ATOM     44  C4  IDS F   3     -16.919  53.004 174.4510  0.00  0.00     0.000 C
ATOM     45  C5  IDS F   3     -16.449  51.881 173.5260  0.00  0.00     0.000 C
ATOM     46  O5  IDS F   3     -17.541  51.373 172.7930  0.00  0.00     0.000 O
ATOM     47   O  IDS F   3     -21.538  53.619 175.4660  0.00  0.00     0.000 OA
ATOM     48   O  IDS F   3     -22.106  53.370 173.1830  0.00  0.00     0.000 OA
ATOM     49   O  IDS F   3     -21.940  51.460 174.6420  0.00  0.00     0.000 OA
ATOM     50   O  IDS F   3     -20.000  52.573 174.0040  0.00  0.00     0.000 O
ATOM     51   S  IDS F   3     -21.488  52.767 174.3340  0.00  0.00     0.000 S
ATOM     52   O  IDS F   3     -17.293  51.581 176.3030  0.00  0.00     0.000 O
ATOM     54  HD  IDS F   3     -18.104  51.593 176.0000  0.00  0.00     0.000 HD
ATOM     54   C  IDS F   3     -15.295  52.250 172.5880  0.00  0.00     0.000 C
ATOM     55   O  IDS F   3     -15.501  52.563 171.4180  0.00  0.00     0.000 OA
ATOM     56   O  IDS F   3     -14.122  52.254 172.9840  0.00  0.00     0.000 OA
BRANCH 41 57
ATOM     57  O4  SGN F   4     -18.057  49.582 174.2300  0.00  0.00     0.000 O
BRANCH 57 61
ATOM     58  C1  SGN F   4     -17.527  45.658 173.1960  0.00  0.00     0.000 C
ATOM     59  C2  SGN F   4     -16.352  46.602 172.9000  0.00  0.00     0.000 C
ATOM     60  C3  SGN F   4     -16.481  47.907 173.6660  0.00  0.00     0.000 C
ATOM     61  C4  SGN F   4     -17.859  48.500 173.3810  0.00  0.00     0.000 C
ATOM     62  C5  SGN F   4     -18.955  47.451 173.6540  0.00  0.00     0.000 C
ATOM     63  O5  SGN F   4     -18.737  46.297 172.9010  0.00  0.00     0.000 O
ATOM     64   N  SGN F   4     -15.086  45.949 173.1740  0.00  0.00     0.000 N
ATOM     66  HD  SGN F   4     -15.857  45.881 172.7850  0.00  0.00     0.000 HD
ATOM     66   S  SGN F   4     -14.427  45.052 171.9830  0.00  0.00     0.000 S
ATOM     67   O  SGN F   4     -15.291  43.896 171.8270  0.00  0.00     0.000 OA
ATOM     68   O  SGN F   4     -14.378  45.866 170.7710  0.00  0.00     0.000 OA
ATOM     69   O  SGN F   4     -13.127  44.704 172.5110  0.00  0.00     0.000 OA
ATOM     70   O  SGN F   4     -15.503  48.830 173.2100  0.00  0.00     0.000 O
ATOM     72  HD  SGN F   4     -16.273  48.762 172.8210  0.00  0.00     0.000 HD
ATOM     72   C  SGN F   4     -20.346  47.894 173.2820  0.00  0.00     0.000 C
ATOM     73   O  SGN F   4     -20.340  48.185 171.9030  0.00  0.00     0.000 O
ATOM     74   S  SGN F   4     -21.557  48.036 170.9450  0.00  0.00     0.000 S
ATOM     75   O  SGN F   4     -22.745  48.330 171.6760  0.00  0.00     0.000 OA
ATOM     76   O  SGN F   4     -21.351  48.970 169.8400  0.00  0.00     0.000 OA
ATOM     77   O  SGN F   4     -21.530  46.673 170.5830  0.00  0.00     0.000 OA
BRANCH 58 78
ATOM     78  O4  IDS F   5     -17.490  45.218 174.5330  0.00  0.00     0.000 O
BRANCH 78 82
ATOM     79  C1  IDS F   5     -17.746  43.534 177.5740  0.00  0.00     0.000 C
ATOM     80  C2  IDS F   5     -16.401  43.708 176.8830  0.00  0.00     0.000 C
ATOM     81  C3  IDS F   5     -16.444  43.248 175.4240  0.00  0.00     0.000 C
ATOM     82  C4  IDS F   5     -17.669  43.841 174.6960  0.00  0.00     0.000 C
ATOM     83  C5  IDS F   5     -18.933  43.587 175.5200  0.00  0.00     0.000 C
ATOM     84  O5  IDS F   5     -18.787  44.107 176.8250  0.00  0.00     0.000 O
ATOM     85   O  IDS F   5     -17.942  42.162 177.8080  0.00  0.00     0.000 OA
ATOM     86   O  IDS F   5     -16.084  45.072 176.8840  0.00  0.00     0.000 O
ATOM     87   S  IDS F   5     -14.687  45.735 176.6540  0.00  0.00     0.000 S
ATOM     88   O  IDS F   5     -13.947  44.877 175.7670  0.00  0.00     0.000 OA
ATOM     89   O  IDS F   5     -14.948  47.030 176.0680  0.00  0.00     0.000 OA
ATOM     90   O  IDS F   5     -14.088  45.798 177.9620  0.00  0.00     0.000 OA
ATOM     91   O  IDS F   5     -16.541  41.837 175.4100  0.00  0.00     0.000 O
ATOM     93  HD  IDS F   5     -17.381  41.731 175.2310  0.00  0.00     0.000 HD
ATOM     93   O  IDS F   5     -20.850  44.983 175.3760  0.00  0.00     0.000 OA
ATOM     94   O  IDS F   5     -20.607  43.632 173.8220  0.00  0.00     0.000 OA
ATOM     95   C  IDS F   5     -20.206  44.098 174.8720  0.00  0.00     0.000 C
ENDBRANCH 78 82
ENDBRANCH 58 78
ENDBRANCH 57 61
ENDBRANCH 41 57
ENDBRANCH 40 44
ENDBRANCH 20 40
ENDBRANCH 19 23
ENDBRANCH 1 19
TORSDOF 8
ENDMDL
MODEL 27
REMARK VINA RESULT:      -6.4      3.206     13.286
FFDIST PL LJ 2322 74 36 -1
ROOT
ATOM      1  C1  IDS F   1     -20.767  51.902 171.7390  0.00  0.00     0.000 C
ATOM      2  C2  IDS F   1     -21.896  51.086 171.0900  0.00  0.00     0.000 C
ATOM      3  C3  IDS F   1     -23.006  51.967 170.4670  0.00  0.00     0.000 C
ATOM      4  C4  IDS F   1     -22.478  53.249 169.7800  0.00  0.00     0.000 C
ATOM      5  C5  IDS F   1     -21.321  53.848 170.5880  0.00  0.00     0.000 C
ATOM      6  O5  IDS F   1     -20.350  52.883 170.8270  0.00  0.00     0.000 O
ATOM      7   S  IDS F   1     -22.037  49.001 169.3770  0.00  0.00     0.000 S
ATOM      8   O  IDS F   1     -23.357  49.419 169.0130  0.00  0.00     0.000 OA
ATOM      9   O  IDS F   1     -21.263  48.662 168.2180  0.00  0.00     0.000 OA
ATOM     10   O  IDS F   1     -22.023  47.973 170.3920  0.00  0.00     0.000 OA
ATOM     11   O  IDS F   1     -21.377  50.277 170.0530  0.00  0.00     0.000 O
ATOM     12   O  IDS F   1     -23.918  52.349 171.4930  0.00  0.00     0.000 O
ATOM     14  HD  IDS F   1     -24.367  53.087 171.5570  0.00  0.00     0.000 HD
ATOM     14   O  IDS F   1     -22.021  52.883 168.5010  0.00  0.00     0.000 O
ATOM     16  HD  IDS F   1     -22.470  53.620 168.5660  0.00  0.00     0.000 HD
ATOM     16   O  IDS F   1     -19.448  55.219 170.0570  0.00  0.00     0.000 OA
ATOM     17   O  IDS F   1     -21.315  55.986 169.5080  0.00  0.00     0.000 OA
ATOM     18   C  IDS F   1     -20.664  55.087 170.0140  0.00  0.00     0.000 C
ENDROOT
BRANCH 1 19
ATOM     19  O4  SGN F   2     -19.691  51.064 171.9900  0.00  0.00     0.000 O
BRANCH 19 23
ATOM     20  C1  SGN F   2     -17.780  49.011 175.0760  0.00  0.00     0.000 C
ATOM     21  C2  SGN F   2     -19.119  48.436 174.6410  0.00  0.00     0.000 C
ATOM     22  C3  SGN F   2     -19.464  48.876 173.2110  0.00  0.00     0.000 C
ATOM     23  C4  SGN F   2     -19.454  50.438 173.2330  0.00  0.00     0.000 C
ATOM     24  C5  SGN F   2     -18.081  50.845 173.6520  0.00  0.00     0.000 C
ATOM     25  O5  SGN F   2     -17.817  50.405 174.9450  0.00  0.00     0.000 O
ATOM     26   N  SGN F   2     -19.111  46.972 174.8740  0.00  0.00     0.000 N
ATOM     28  HD  SGN F   2     -19.353  46.274 174.4220  0.00  0.00     0.000 HD
ATOM     28   S  SGN F   2     -19.455  46.432 176.4230  0.00  0.00     0.000 S
ATOM     29   O  SGN F   2     -18.626  47.183 177.3390  0.00  0.00     0.000 OA
ATOM     30   O  SGN F   2     -20.863  46.707 176.6030  0.00  0.00     0.000 OA
ATOM     31   O  SGN F   2     -19.194  45.039 176.4390  0.00  0.00     0.000 OA
ATOM     32   O  SGN F   2     -20.762  48.387 172.8930  0.00  0.00     0.000 O
ATOM     34  HD  SGN F   2     -21.004  47.689 172.4410  0.00  0.00     0.000 HD
ATOM     34   C  SGN F   2     -17.904  52.327 173.6650  0.00  0.00     0.000 C
ATOM     35   O  SGN F   2     -18.915  52.807 174.4840  0.00  0.00     0.000 O
ATOM     36   S  SGN F   2     -19.090  54.235 174.9900  0.00  0.00     0.000 S
ATOM     37   O  SGN F   2     -20.421  54.609 174.5840  0.00  0.00     0.000 OA
ATOM     38   O  SGN F   2     -18.904  54.134 176.4210  0.00  0.00     0.000 OA
ATOM     39   O  SGN F   2     -18.057  55.043 174.3520  0.00  0.00     0.000 OA
BRANCH 20 40
ATOM     40  O4  IDS F   3     -16.721  48.479 174.3270  0.00  0.00     0.000 O
BRANCH 40 44
ATOM     41  C1  IDS F   3     -14.012  46.643 173.1090  0.00  0.00     0.000 C
ATOM     42  C2  IDS F   3     -15.200  45.930 173.7030  0.00  0.00     0.000 C
ATOM     43  C3  IDS F   3     -15.614  46.505 175.1110  0.00  0.00     0.000 C
ATOM     44  C4  IDS F   3     -15.630  48.022 175.1160  0.00  0.00     0.000 C
ATOM     45  C5  IDS F   3     -14.314  48.538 174.5350  0.00  0.00     0.000 C
ATOM     46  O5  IDS F   3     -14.152  48.068 173.2160  0.00  0.00     0.000 O
ATOM     47   O  IDS F   3     -17.988  44.401 173.0970  0.00  0.00     0.000 OA
ATOM     48   O  IDS F   3     -17.696  45.363 170.9550  0.00  0.00     0.000 OA
ATOM     49   O  IDS F   3     -16.040  43.888 171.8960  0.00  0.00     0.000 OA
ATOM     50   O  IDS F   3     -16.294  46.022 172.7840  0.00  0.00     0.000 O
ATOM     51   S  IDS F   3     -17.050  44.853 172.1350  0.00  0.00     0.000 S
ATOM     52   O  IDS F   3     -14.666  46.096 176.0920  0.00  0.00     0.000 O
ATOM     54  HD  IDS F   3     -14.935  45.730 175.3540  0.00  0.00     0.000 HD
ATOM     54   C  IDS F   3     -14.128  50.058 174.5920  0.00  0.00     0.000 C
ATOM     55   O  IDS F   3     -14.355  50.764 173.6130  0.00  0.00     0.000 OA
ATOM     56   O  IDS F   3     -13.754  50.620 175.6300  0.00  0.00     0.000 OA
BRANCH 41 57
ATOM     57  O4  SGN F   4     -12.850  46.176 173.7310  0.00  0.00     0.000 O
BRANCH 57 61
ATOM     58  C1  SGN F   4      -8.978  46.239 172.4090  0.00  0.00     0.000 C
ATOM     59  C2  SGN F   4      -9.267  47.017 173.7030  0.00  0.00     0.000 C
ATOM     60  C3  SGN F   4     -10.596  46.608 174.3120  0.00  0.00     0.000 C
ATOM     61  C4  SGN F   4     -11.677  46.736 173.2410  0.00  0.00     0.000 C
ATOM     62  C5  SGN F   4     -11.258  45.970 171.9710  0.00  0.00     0.000 C
ATOM     63  O5  SGN F   4     -10.027  46.425 171.5000  0.00  0.00     0.000 O
ATOM     64   N  SGN F   4      -8.179  46.859 174.6500  0.00  0.00     0.000 N
ATOM     66  HD  SGN F   4      -8.394  47.043 173.8310  0.00  0.00     0.000 HD
ATOM     66   S  SGN F   4      -6.919  47.888 174.5290  0.00  0.00     0.000 S
ATOM     67   O  SGN F   4      -6.242  47.548 173.2920  0.00  0.00     0.000 OA
ATOM     68   O  SGN F   4      -7.443  49.252 174.5100  0.00  0.00     0.000 OA
ATOM     69   O  SGN F   4      -6.127  47.579 175.6970  0.00  0.00     0.000 OA
ATOM     70   O  SGN F   4     -10.927  47.488 175.3770  0.00  0.00     0.000 O
ATOM     72  HD  SGN F   4     -11.141  47.671 174.5580  0.00  0.00     0.000 HD
ATOM     72   C  SGN F   4     -12.198  46.137 170.8050  0.00  0.00     0.000 C
ATOM     73   O  SGN F   4     -12.250  47.512 170.5010  0.00  0.00     0.000 O
ATOM     74   S  SGN F   4     -12.502  48.114 169.0890  0.00  0.00     0.000 S
ATOM     75   O  SGN F   4     -13.386  47.248 168.3810  0.00  0.00     0.000 OA
ATOM     76   O  SGN F   4     -13.080  49.442 169.2840  0.00  0.00     0.000 OA
ATOM     77   O  SGN F   4     -11.224  48.105 168.4910  0.00  0.00     0.000 OA
BRANCH 58 78
ATOM     78  O4  IDS F   5      -8.769  44.875 172.6830  0.00  0.00     0.000 O
BRANCH 78 82
ATOM     79  C1  IDS F   5      -7.887  41.502 172.6770  0.00  0.00     0.000 C
ATOM     80  C2  IDS F   5      -7.332  42.458 173.7240  0.00  0.00     0.000 C
ATOM     81  C3  IDS F   5      -6.711  43.704 173.0880  0.00  0.00     0.000 C
ATOM     82  C4  IDS F   5      -7.661  44.316 172.0370  0.00  0.00     0.000 C
ATOM     83  C5  IDS F   5      -8.131  43.229 171.0680  0.00  0.00     0.000 C
ATOM     84  O5  IDS F   5      -8.735  42.164 171.7740  0.00  0.00     0.000 O
ATOM     85   O  IDS F   5      -6.803  40.875 172.0400  0.00  0.00     0.000 OA
ATOM     86   O  IDS F   5      -8.393  42.884 174.5320  0.00  0.00     0.000 O
ATOM     87   S  IDS F   5      -8.319  43.545 175.9470  0.00  0.00     0.000 S
ATOM     88   O  IDS F   5      -7.091  44.294 176.0050  0.00  0.00     0.000 OA
ATOM     89   O  IDS F   5      -9.482  44.396 176.0540  0.00  0.00     0.000 OA
ATOM     90   O  IDS F   5      -8.318  42.442 176.8710  0.00  0.00     0.000 OA
ATOM     91   O  IDS F   5      -5.509  43.319 172.4500  0.00  0.00     0.000 O
ATOM     93  HD  IDS F   5      -5.760  43.300 171.6220  0.00  0.00     0.000 HD
ATOM     93   O  IDS F   5     -10.191  43.374 169.8930  0.00  0.00     0.000 OA
ATOM     94   O  IDS F   5      -8.643  44.524 169.1330  0.00  0.00     0.000 OA
ATOM     95   C  IDS F   5      -9.044  43.735 169.9670  0.00  0.00     0.000 C
ENDBRANCH 78 82
ENDBRANCH 58 78
ENDBRANCH 57 61
ENDBRANCH 41 57
ENDBRANCH 40 44
ENDBRANCH 20 40
ENDBRANCH 19 23
ENDBRANCH 1 19
TORSDOF 8
ENDMDL
MODEL 28
REMARK VINA RESULT:      -6.3      4.439     11.847
FFDIST PL LJ 2322 74 36 -1
ROOT
ATOM      1  C1  IDS F   1     -21.326  45.408 171.7240  0.00  0.00     0.000 C
ATOM      2  C2  IDS F   1     -21.602  44.355 170.6380  0.00  0.00     0.000 C
ATOM      3  C3  IDS F   1     -20.898  43.003 170.9070  0.00  0.00     0.000 C
ATOM      4  C4  IDS F   1     -20.872  42.595 172.3980  0.00  0.00     0.000 C
ATOM      5  C5  IDS F   1     -20.637  43.824 173.2830  0.00  0.00     0.000 C
ATOM      6  O5  IDS F   1     -21.554  44.821 172.9770  0.00  0.00     0.000 O
ATOM      7   S  IDS F   1     -23.793  43.416 169.3660  0.00  0.00     0.000 S
ATOM      8   O  IDS F   1     -23.082  42.207 169.0820  0.00  0.00     0.000 OA
ATOM      9   O  IDS F   1     -25.122  43.139 169.8300  0.00  0.00     0.000 OA
ATOM     10   O  IDS F   1     -23.755  44.369 168.2810  0.00  0.00     0.000 OA
ATOM     11   O  IDS F   1     -22.989  44.093 170.5570  0.00  0.00     0.000 O
ATOM     12   O  IDS F   1     -19.554  43.084 170.4390  0.00  0.00     0.000 O
ATOM     14  HD  IDS F   1     -18.853  42.695 170.7650  0.00  0.00     0.000 HD
ATOM     14   O  IDS F   1     -22.123  42.028 172.7010  0.00  0.00     0.000 O
ATOM     16  HD  IDS F   1     -21.422  41.638 173.0270  0.00  0.00     0.000 HD
ATOM     16   O  IDS F   1     -21.174  44.390 175.5320  0.00  0.00     0.000 OA
ATOM     17   O  IDS F   1     -20.089  42.619 175.2800  0.00  0.00     0.000 OA
ATOM     18   C  IDS F   1     -20.634  43.590 174.7800  0.00  0.00     0.000 C
ENDROOT
BRANCH 1 19
ATOM     19  O4  SGN F   2     -22.220  46.457 171.5720  0.00  0.00     0.000 O
BRANCH 19 23
ATOM     20  C1  SGN F   2     -20.067  49.898 172.5290  0.00  0.00     0.000 C
ATOM     21  C2  SGN F   2     -21.239  49.586 173.4440  0.00  0.00     0.000 C
ATOM     22  C3  SGN F   2     -21.605  48.096 173.3790  0.00  0.00     0.000 C
ATOM     23  C4  SGN F   2     -21.915  47.802 171.8760  0.00  0.00     0.000 C
ATOM     24  C5  SGN F   2     -20.673  48.131 171.1160  0.00  0.00     0.000 C
ATOM     25  O5  SGN F   2     -20.381  49.487 171.2270  0.00  0.00     0.000 O
ATOM     26   N  SGN F   2     -20.944  50.112 174.7990  0.00  0.00     0.000 N
ATOM     28  HD  SGN F   2     -21.018  49.810 175.6070  0.00  0.00     0.000 HD
ATOM     28   S  SGN F   2     -21.237  51.737 175.0810  0.00  0.00     0.000 S
ATOM     29   O  SGN F   2     -20.619  52.483 174.0080  0.00  0.00     0.000 OA
ATOM     30   O  SGN F   2     -22.678  51.856 175.0760  0.00  0.00     0.000 OA
ATOM     31   O  SGN F   2     -20.698  52.035 176.3580  0.00  0.00     0.000 OA
ATOM     32   O  SGN F   2     -22.761  47.883 174.1800  0.00  0.00     0.000 O
ATOM     34  HD  SGN F   2     -22.835  47.581 174.9880  0.00  0.00     0.000 HD
ATOM     34   C  SGN F   2     -20.803  47.844 169.6580  0.00  0.00     0.000 C
ATOM     35   O  SGN F   2     -21.925  48.548 169.2470  0.00  0.00     0.000 O
ATOM     36   S  SGN F   2     -22.409  48.753 167.8150  0.00  0.00     0.000 S
ATOM     37   O  SGN F   2     -23.770  48.279 167.8150  0.00  0.00     0.000 OA
ATOM     38   O  SGN F   2     -22.269  50.175 167.5900  0.00  0.00     0.000 OA
ATOM     39   O  SGN F   2     -21.537  47.967 166.9530  0.00  0.00     0.000 OA
BRANCH 20 40
ATOM     40  O4  IDS F   3     -18.889  49.274 172.9660  0.00  0.00     0.000 O
BRANCH 40 44
ATOM     41  C1  IDS F   3     -15.478  49.188 173.7050  0.00  0.00     0.000 C
ATOM     42  C2  IDS F   3     -16.165  50.509 173.4680  0.00  0.00     0.000 C
ATOM     43  C3  IDS F   3     -17.019  50.523 172.1430  0.00  0.00     0.000 C
ATOM     44  C4  IDS F   3     -17.850  49.262 171.9970  0.00  0.00     0.000 C
ATOM     45  C5  IDS F   3     -16.951  48.044 172.2100  0.00  0.00     0.000 C
ATOM     46  O5  IDS F   3     -16.377  48.088 173.4970  0.00  0.00     0.000 O
ATOM     47   O  IDS F   3     -17.573  53.083 174.8380  0.00  0.00     0.000 OA
ATOM     48   O  IDS F   3     -17.543  51.695 176.7540  0.00  0.00     0.000 OA
ATOM     49   O  IDS F   3     -15.507  52.280 175.6070  0.00  0.00     0.000 OA
ATOM     50   O  IDS F   3     -16.993  50.802 174.6000  0.00  0.00     0.000 O
ATOM     51   S  IDS F   3     -16.900  52.033 175.5130  0.00  0.00     0.000 S
ATOM     52   O  IDS F   3     -16.151  50.583 171.0170  0.00  0.00     0.000 O
ATOM     54  HD  IDS F   3     -16.072  50.877 171.8270  0.00  0.00     0.000 HD
ATOM     54   C  IDS F   3     -17.623  46.688 171.9670  0.00  0.00     0.000 C
ATOM     55   O  IDS F   3     -18.052  46.014 172.9000  0.00  0.00     0.000 OA
ATOM     56   O  IDS F   3     -17.762  46.237 170.8220  0.00  0.00     0.000 OA
BRANCH 41 57
ATOM     57  O4  SGN F   4     -14.350  49.116 172.8820  0.00  0.00     0.000 O
BRANCH 57 61
ATOM     58  C1  SGN F   4     -10.691  47.317 173.2350  0.00  0.00     0.000 C
ATOM     59  C2  SGN F   4     -11.727  46.584 172.3690  0.00  0.00     0.000 C
ATOM     60  C3  SGN F   4     -12.874  47.501 171.9790  0.00  0.00     0.000 C
ATOM     61  C4  SGN F   4     -13.441  48.131 173.2490  0.00  0.00     0.000 C
ATOM     62  C5  SGN F   4     -12.310  48.784 174.0670  0.00  0.00     0.000 C
ATOM     63  O5  SGN F   4     -11.314  47.854 174.3680  0.00  0.00     0.000 O
ATOM     64   N  SGN F   4     -11.098  45.996 171.2020  0.00  0.00     0.000 N
ATOM     66  HD  SGN F   4     -11.061  46.094 172.0610  0.00  0.00     0.000 HD
ATOM     66   S  SGN F   4     -10.450  44.509 171.3630  0.00  0.00     0.000 S
ATOM     67   O  SGN F   4      -9.299  44.664 172.2320  0.00  0.00     0.000 OA
ATOM     68   O  SGN F   4     -11.462  43.630 171.9460  0.00  0.00     0.000 OA
ATOM     69   O  SGN F   4     -10.079  44.161 170.0100  0.00  0.00     0.000 OA
ATOM     70   O  SGN F   4     -13.907  46.743 171.3660  0.00  0.00     0.000 O
ATOM     72  HD  SGN F   4     -13.869  46.840 172.2250  0.00  0.00     0.000 HD
ATOM     72   C  SGN F   4     -12.743  49.326 175.4050  0.00  0.00     0.000 C
ATOM     73   O  SGN F   4     -13.266  48.248 176.1450  0.00  0.00     0.000 O
ATOM     74   S  SGN F   4     -13.226  48.115 177.6950  0.00  0.00     0.000 S
ATOM     75   O  SGN F   4     -13.334  49.419 178.2620  0.00  0.00     0.000 OA
ATOM     76   O  SGN F   4     -14.344  47.257 178.0830  0.00  0.00     0.000 OA
ATOM     77   O  SGN F   4     -11.948  47.575 177.9500  0.00  0.00     0.000 OA
BRANCH 58 78
ATOM     78  O4  IDS F   5     -10.031  48.312 172.4890  0.00  0.00     0.000 O
BRANCH 78 82
ATOM     79  C1  IDS F   5      -7.842  50.637 171.0930  0.00  0.00     0.000 C
ATOM     80  C2  IDS F   5      -8.173  49.337 170.3720  0.00  0.00     0.000 C
ATOM     81  C3  IDS F   5      -7.970  48.117 171.2720  0.00  0.00     0.000 C
ATOM     82  C4  IDS F   5      -8.642  48.328 172.6450  0.00  0.00     0.000 C
ATOM     83  C5  IDS F   5      -8.211  49.675 173.2300  0.00  0.00     0.000 C
ATOM     84  O5  IDS F   5      -8.503  50.722 172.3290  0.00  0.00     0.000 O
ATOM     85   O  IDS F   5      -6.444  50.720 171.2210  0.00  0.00     0.000 OA
ATOM     86   O  IDS F   5      -9.526  49.373 170.0110  0.00  0.00     0.000 O
ATOM     87   S  IDS F   5     -10.260  48.492 168.9480  0.00  0.00     0.000 S
ATOM     88   O  IDS F   5      -9.591  47.218 168.9120  0.00  0.00     0.000 OA
ATOM     89   O  IDS F   5     -11.628  48.375 169.3990  0.00  0.00     0.000 OA
ATOM     90   O  IDS F   5     -10.115  49.209 167.7090  0.00  0.00     0.000 OA
ATOM     91   O  IDS F   5      -6.580  47.938 171.4630  0.00  0.00     0.000 O
ATOM     93  HD  IDS F   5      -6.481  48.259 172.2620  0.00  0.00     0.000 HD
ATOM     93   O  IDS F   5      -9.552  50.879 174.7770  0.00  0.00     0.000 OA
ATOM     94   O  IDS F   5      -8.497  49.278 175.5640  0.00  0.00     0.000 OA
ATOM     95   C  IDS F   5      -8.787  49.965 174.6030  0.00  0.00     0.000 C
ENDBRANCH 78 82
ENDBRANCH 58 78
ENDBRANCH 57 61
ENDBRANCH 41 57
ENDBRANCH 40 44
ENDBRANCH 20 40
ENDBRANCH 19 23
ENDBRANCH 1 19
TORSDOF 8
ENDMDL
MODEL 29
REMARK VINA RESULT:      -6.3      4.476     13.177
FFDIST PL LJ 2322 74 36 -1
ROOT
ATOM      1  C1  IDS F   1     -21.075  45.480 175.5910  0.00  0.00     0.000 C
ATOM      2  C2  IDS F   1     -20.663  44.026 175.3070  0.00  0.00     0.000 C
ATOM      3  C3  IDS F   1     -20.491  43.180 176.5910  0.00  0.00     0.000 C
ATOM      4  C4  IDS F   1     -21.528  43.494 177.6940  0.00  0.00     0.000 C
ATOM      5  C5  IDS F   1     -21.812  44.999 177.7460  0.00  0.00     0.000 C
ATOM      6  O5  IDS F   1     -22.157  45.467 176.4840  0.00  0.00     0.000 O
ATOM      7   S  IDS F   1     -21.506  42.066 173.6490  0.00  0.00     0.000 S
ATOM      8   O  IDS F   1     -20.937  41.100 174.5390  0.00  0.00     0.000 OA
ATOM      9   O  IDS F   1     -22.818  41.671 173.2260  0.00  0.00     0.000 OA
ATOM     10   O  IDS F   1     -20.634  42.415 172.5520  0.00  0.00     0.000 OA
ATOM     11   O  IDS F   1     -21.648  43.389 174.5180  0.00  0.00     0.000 O
ATOM     12   O  IDS F   1     -19.187  43.410 177.1210  0.00  0.00     0.000 O
ATOM     14  HD  IDS F   1     -18.943  43.411 177.9510  0.00  0.00     0.000 HD
ATOM     14   O  IDS F   1     -22.708  42.801 177.3710  0.00  0.00     0.000 O
ATOM     16  HD  IDS F   1     -22.464  42.802 178.2020  0.00  0.00     0.000 HD
ATOM     16   O  IDS F   1     -23.659  46.326 178.4500  0.00  0.00     0.000 OA
ATOM     17   O  IDS F   1     -22.905  44.997 179.8780  0.00  0.00     0.000 OA
ATOM     18   C  IDS F   1     -22.850  45.459 178.7500  0.00  0.00     0.000 C
ENDROOT
BRANCH 1 19
ATOM     19  O4  SGN F   2     -21.500  46.068 174.4090  0.00  0.00     0.000 O
BRANCH 19 23
ATOM     20  C1  SGN F   2     -18.519  48.285 172.5160  0.00  0.00     0.000 C
ATOM     21  C2  SGN F   2     -19.144  48.941 173.7370  0.00  0.00     0.000 C
ATOM     22  C3  SGN F   2     -19.784  47.890 174.6560  0.00  0.00     0.000 C
ATOM     23  C4  SGN F   2     -20.827  47.133 173.7730  0.00  0.00     0.000 C
ATOM     24  C5  SGN F   2     -20.064  46.530 172.6410  0.00  0.00     0.000 C
ATOM     25  O5  SGN F   2     -19.493  47.527 171.8550  0.00  0.00     0.000 O
ATOM     26   N  SGN F   2     -18.138  49.822 174.3770  0.00  0.00     0.000 N
ATOM     28  HD  SGN F   2     -17.874  49.968 175.1890  0.00  0.00     0.000 HD
ATOM     28   S  SGN F   2     -17.932  51.357 173.7370  0.00  0.00     0.000 S
ATOM     29   O  SGN F   2     -17.770  51.213 172.3080  0.00  0.00     0.000 OA
ATOM     30   O  SGN F   2     -19.143  52.066 174.0860  0.00  0.00     0.000 OA
ATOM     31   O  SGN F   2     -16.800  51.920 174.3780  0.00  0.00     0.000 OA
ATOM     32   O  SGN F   2     -20.430  48.567 175.7270  0.00  0.00     0.000 O
ATOM     34  HD  SGN F   2     -20.166  48.713 176.5390  0.00  0.00     0.000 HD
ATOM     34   C  SGN F   2     -20.931  45.722 171.7350  0.00  0.00     0.000 C
ATOM     35   O  SGN F   2     -21.948  46.580 171.3430  0.00  0.00     0.000 O
ATOM     36   S  SGN F   2     -23.007  46.324 170.2760  0.00  0.00     0.000 S
ATOM     37   O  SGN F   2     -24.265  46.531 170.9490  0.00  0.00     0.000 OA
ATOM     38   O  SGN F   2     -22.714  47.291 169.2410  0.00  0.00     0.000 OA
ATOM     39   O  SGN F   2     -22.831  44.951 169.8190  0.00  0.00     0.000 OA
BRANCH 20 40
ATOM     40  O4  IDS F   3     -17.427  47.479 172.8650  0.00  0.00     0.000 O
BRANCH 40 44
ATOM     41  C1  IDS F   3     -14.279  45.969 172.8000  0.00  0.00     0.000 C
ATOM     42  C2  IDS F   3     -14.932  46.292 174.1200  0.00  0.00     0.000 C
ATOM     43  C3  IDS F   3     -15.456  47.777 174.1920  0.00  0.00     0.000 C
ATOM     44  C4  IDS F   3     -16.190  48.178 172.9270  0.00  0.00     0.000 C
ATOM     45  C5  IDS F   3     -15.329  47.822 171.7150  0.00  0.00     0.000 C
ATOM     46  O5  IDS F   3     -15.070  46.437 171.6970  0.00  0.00     0.000 O
ATOM     47   O  IDS F   3     -16.698  45.160 176.5850  0.00  0.00     0.000 OA
ATOM     48   O  IDS F   3     -17.071  43.362 175.0920  0.00  0.00     0.000 OA
ATOM     49   O  IDS F   3     -14.844  43.972 175.7780  0.00  0.00     0.000 OA
ATOM     50   O  IDS F   3     -16.009  45.372 174.3320  0.00  0.00     0.000 O
ATOM     51   S  IDS F   3     -16.168  44.401 175.5110  0.00  0.00     0.000 S
ATOM     52   O  IDS F   3     -14.352  48.666 174.3320  0.00  0.00     0.000 O
ATOM     54  HD  IDS F   3     -14.473  47.845 174.5810  0.00  0.00     0.000 HD
ATOM     54   C  IDS F   3     -15.884  48.285 170.3630  0.00  0.00     0.000 C
ATOM     55   O  IDS F   3     -16.497  47.513 169.6300  0.00  0.00     0.000 OA
ATOM     56   O  IDS F   3     -15.740  49.452 169.9760  0.00  0.00     0.000 OA
BRANCH 41 57
ATOM     57  O4  SGN F   4     -12.989  46.509 172.7940  0.00  0.00     0.000 O
BRANCH 57 61
ATOM     58  C1  SGN F   4      -9.578  45.721 170.6740  0.00  0.00     0.000 C
ATOM     59  C2  SGN F   4     -10.420  46.912 170.1890  0.00  0.00     0.000 C
ATOM     60  C3  SGN F   4     -11.411  47.360 171.2480  0.00  0.00     0.000 C
ATOM     61  C4  SGN F   4     -12.225  46.146 171.6910  0.00  0.00     0.000 C
ATOM     62  C5  SGN F   4     -11.284  44.996 172.0980  0.00  0.00     0.000 C
ATOM     63  O5  SGN F   4     -10.420  44.668 171.0540  0.00  0.00     0.000 O
ATOM     64   N  SGN F   4      -9.566  48.005 169.7650  0.00  0.00     0.000 N
ATOM     66  HD  SGN F   4      -9.720  47.155 169.7080  0.00  0.00     0.000 HD
ATOM     66   S  SGN F   4      -9.030  47.991 168.2250  0.00  0.00     0.000 S
ATOM     67   O  SGN F   4      -8.101  46.881 168.1340  0.00  0.00     0.000 OA
ATOM     68   O  SGN F   4     -10.182  47.814 167.3430  0.00  0.00     0.000 OA
ATOM     69   O  SGN F   4      -8.377  49.273 168.0900  0.00  0.00     0.000 OA
ATOM     70   O  SGN F   4     -12.308  48.312 170.6940  0.00  0.00     0.000 O
ATOM     72  HD  SGN F   4     -12.462  47.462 170.6370  0.00  0.00     0.000 HD
ATOM     72   C  SGN F   4     -11.987  43.706 172.4320  0.00  0.00     0.000 C
ATOM     73   O  SGN F   4     -12.706  43.311 171.2860  0.00  0.00     0.000 O
ATOM     74   S  SGN F   4     -13.023  41.842 170.8830  0.00  0.00     0.000 S
ATOM     75   O  SGN F   4     -13.205  41.077 172.0720  0.00  0.00     0.000 OA
ATOM     76   O  SGN F   4     -14.233  41.872 170.0630  0.00  0.00     0.000 OA
ATOM     77   O  SGN F   4     -11.858  41.424 170.2050  0.00  0.00     0.000 OA
BRANCH 58 78
ATOM     78  O4  IDS F   5      -8.728  46.107 171.7280  0.00  0.00     0.000 O
BRANCH 78 82
ATOM     79  C1  IDS F   5      -6.203  46.511 174.0960  0.00  0.00     0.000 C
ATOM     80  C2  IDS F   5      -6.386  47.512 172.9630  0.00  0.00     0.000 C
ATOM     81  C3  IDS F   5      -6.439  46.825 171.5970  0.00  0.00     0.000 C
ATOM     82  C4  IDS F   5      -7.418  45.631 171.6200  0.00  0.00     0.000 C
ATOM     83  C5  IDS F   5      -7.104  44.729 172.8150  0.00  0.00     0.000 C
ATOM     84  O5  IDS F   5      -7.141  45.469 174.0180  0.00  0.00     0.000 O
ATOM     85   O  IDS F   5      -4.876  46.047 174.0580  0.00  0.00     0.000 OA
ATOM     86   O  IDS F   5      -7.609  48.166 173.1530  0.00  0.00     0.000 O
ATOM     87   S  IDS F   5      -8.088  49.512 172.5180  0.00  0.00     0.000 S
ATOM     88   O  IDS F   5      -7.465  49.620 171.2250  0.00  0.00     0.000 OA
ATOM     89   O  IDS F   5      -9.528  49.421 172.4220  0.00  0.00     0.000 OA
ATOM     90   O  IDS F   5      -7.628  50.532 173.4220  0.00  0.00     0.000 OA
ATOM     91   O  IDS F   5      -5.143  46.350 171.2920  0.00  0.00     0.000 O
ATOM     93  HD  IDS F   5      -5.231  45.506 171.4660  0.00  0.00     0.000 HD
ATOM     93   O  IDS F   5      -8.747  43.346 173.8330  0.00  0.00     0.000 OA
ATOM     94   O  IDS F   5      -7.957  42.637 172.0510  0.00  0.00     0.000 OA
ATOM     95   C  IDS F   5      -7.988  43.499 172.9100  0.00  0.00     0.000 C
ENDBRANCH 78 82
ENDBRANCH 58 78
ENDBRANCH 57 61
ENDBRANCH 41 57
ENDBRANCH 40 44
ENDBRANCH 20 40
ENDBRANCH 19 23
ENDBRANCH 1 19
TORSDOF 8
ENDMDL
MODEL 30
REMARK VINA RESULT:      -6.2      4.005      7.586
FFDIST PL LJ 2322 74 36 -1
ROOT
ATOM      1  C1  IDS F   1      -8.659  47.790 170.5730  0.00  0.00     0.000 C
ATOM      2  C2  IDS F   1      -8.602  46.825 169.3770  0.00  0.00     0.000 C
ATOM      3  C3  IDS F   1      -8.296  47.535 168.0360  0.00  0.00     0.000 C
ATOM      4  C4  IDS F   1      -7.272  48.688 168.1550  0.00  0.00     0.000 C
ATOM      5  C5  IDS F   1      -7.499  49.470 169.4540  0.00  0.00     0.000 C
ATOM      6  O5  IDS F   1      -7.517  48.603 170.5400  0.00  0.00     0.000 O
ATOM      7   S  IDS F   1      -7.407  44.458 168.8570  0.00  0.00     0.000 S
ATOM      8   O  IDS F   1      -7.488  44.751 167.4580  0.00  0.00     0.000 OA
ATOM      9   O  IDS F   1      -6.115  43.944 169.2040  0.00  0.00     0.000 OA
ATOM     10   O  IDS F   1      -8.495  43.635 169.3310  0.00  0.00     0.000 OA
ATOM     11   O  IDS F   1      -7.588  45.862 169.5790  0.00  0.00     0.000 O
ATOM     12   O  IDS F   1      -9.510  48.062 167.5080  0.00  0.00     0.000 O
ATOM     14  HD  IDS F   1      -9.617  48.782 167.0370  0.00  0.00     0.000 HD
ATOM     14   O  IDS F   1      -5.989  48.112 168.1670  0.00  0.00     0.000 O
ATOM     16  HD  IDS F   1      -6.097  48.831 167.6960  0.00  0.00     0.000 HD
ATOM     16   O  IDS F   1      -6.115  50.792 170.8700  0.00  0.00     0.000 OA
ATOM     17   O  IDS F   1      -6.171  51.373 168.8610  0.00  0.00     0.000 OA
ATOM     18   C  IDS F   1      -6.538  50.607 169.7370  0.00  0.00     0.000 C
ENDROOT
BRANCH 1 19
ATOM     19  O4  SGN F   2      -8.629  47.054 171.7480  0.00  0.00     0.000 O
BRANCH 19 23
ATOM     20  C1  SGN F   2     -11.665  47.722 174.5280  0.00  0.00     0.000 C
ATOM     21  C2  SGN F   2     -10.792  48.926 174.2120  0.00  0.00     0.000 C
ATOM     22  C3  SGN F   2     -10.110  48.766 172.8460  0.00  0.00     0.000 C
ATOM     23  C4  SGN F   2      -9.297  47.434 172.9320  0.00  0.00     0.000 C
ATOM     24  C5  SGN F   2     -10.285  46.354 173.2200  0.00  0.00     0.000 C
ATOM     25  O5  SGN F   2     -10.884  46.561 174.4590  0.00  0.00     0.000 O
ATOM     26   N  SGN F   2     -11.597  50.160 174.3830  0.00  0.00     0.000 N
ATOM     28  HD  SGN F   2     -11.711  50.889 173.9300  0.00  0.00     0.000 HD
ATOM     28   S  SGN F   2     -11.764  50.768 175.9350  0.00  0.00     0.000 S
ATOM     29   O  SGN F   2     -12.169  49.673 176.7890  0.00  0.00     0.000 OA
ATOM     30   O  SGN F   2     -10.454  51.276 176.2740  0.00  0.00     0.000 OA
ATOM     31   O  SGN F   2     -12.722  51.811 175.8660  0.00  0.00     0.000 OA
ATOM     32   O  SGN F   2      -9.239  49.873 172.6470  0.00  0.00     0.000 O
ATOM     34  HD  SGN F   2      -9.354  50.602 172.1940  0.00  0.00     0.000 HD
ATOM     34   C  SGN F   2      -9.654  45.003 173.2760  0.00  0.00     0.000 C
ATOM     35   O  SGN F   2      -8.640  45.113 174.2170  0.00  0.00     0.000 O
ATOM     36   S  SGN F   2      -7.796  43.983 174.7960  0.00  0.00     0.000 S
ATOM     37   O  SGN F   2      -6.432  44.378 174.5490  0.00  0.00     0.000 OA
ATOM     38   O  SGN F   2      -8.165  43.941 176.1950  0.00  0.00     0.000 OA
ATOM     39   O  SGN F   2      -8.168  42.765 174.0880  0.00  0.00     0.000 OA
BRANCH 20 40
ATOM     40  O4  IDS F   3     -12.754  47.628 173.6500  0.00  0.00     0.000 O
BRANCH 40 44
ATOM     41  C1  IDS F   3     -16.066  47.159 172.6490  0.00  0.00     0.000 C
ATOM     42  C2  IDS F   3     -15.146  48.026 171.8270  0.00  0.00     0.000 C
ATOM     43  C3  IDS F   3     -14.385  49.099 172.6950  0.00  0.00     0.000 C
ATOM     44  C4  IDS F   3     -13.831  48.499 173.9730  0.00  0.00     0.000 C
ATOM     45  C5  IDS F   3     -14.938  47.718 174.6810  0.00  0.00     0.000 C
ATOM     46  O5  IDS F   3     -15.417  46.692 173.8410  0.00  0.00     0.000 O
ATOM     47   O  IDS F   3     -13.179  48.170 169.2600  0.00  0.00     0.000 OA
ATOM     48   O  IDS F   3     -13.371  45.814 169.3660  0.00  0.00     0.000 OA
ATOM     49   O  IDS F   3     -15.315  47.212 169.0980  0.00  0.00     0.000 OA
ATOM     50   O  IDS F   3     -14.213  47.182 171.1450  0.00  0.00     0.000 O
ATOM     51   S  IDS F   3     -14.007  47.078 169.6260  0.00  0.00     0.000 S
ATOM     52   O  IDS F   3     -15.289  50.131 173.0780  0.00  0.00     0.000 O
ATOM     54  HD  IDS F   3     -15.260  49.610 172.3870  0.00  0.00     0.000 HD
ATOM     54   C  IDS F   3     -14.564  47.158 176.0570  0.00  0.00     0.000 C
ATOM     55   O  IDS F   3     -14.222  45.986 176.1950  0.00  0.00     0.000 OA
ATOM     56   O  IDS F   3     -14.583  47.872 177.0680  0.00  0.00     0.000 OA
BRANCH 41 57
ATOM     57  O4  SGN F   4     -17.232  47.879 172.9260  0.00  0.00     0.000 O
BRANCH 57 61
ATOM     58  C1  SGN F   4     -21.128  46.854 173.6470  0.00  0.00     0.000 C
ATOM     59  C2  SGN F   4     -20.257  47.123 174.8840  0.00  0.00     0.000 C
ATOM     60  C3  SGN F   4     -18.986  47.869 174.5170  0.00  0.00     0.000 C
ATOM     61  C4  SGN F   4     -18.282  47.101 173.3990  0.00  0.00     0.000 C
ATOM     62  C5  SGN F   4     -19.262  46.835 172.2400  0.00  0.00     0.000 C
ATOM     63  O5  SGN F   4     -20.389  46.148 172.6900  0.00  0.00     0.000 O
ATOM     64   N  SGN F   4     -21.011  47.831 175.9000  0.00  0.00     0.000 N
ATOM     66  HD  SGN F   4     -21.005  47.162 175.3500  0.00  0.00     0.000 HD
ATOM     66   S  SGN F   4     -21.894  46.939 176.9420  0.00  0.00     0.000 S
ATOM     67   O  SGN F   4     -22.975  46.366 176.1630  0.00  0.00     0.000 OA
ATOM     68   O  SGN F   4     -21.026  45.912 177.5130  0.00  0.00     0.000 OA
ATOM     69   O  SGN F   4     -22.359  47.916 177.9010  0.00  0.00     0.000 OA
ATOM     70   O  SGN F   4     -18.114  47.911 175.6370  0.00  0.00     0.000 O
ATOM     72  HD  SGN F   4     -18.107  47.242 175.0870  0.00  0.00     0.000 HD
ATOM     72   C  SGN F   4     -18.703  45.973 171.1390  0.00  0.00     0.000 C
ATOM     73   O  SGN F   4     -18.345  44.737 171.7140  0.00  0.00     0.000 O
ATOM     74   S  SGN F   4     -18.359  43.364 170.9810  0.00  0.00     0.000 S
ATOM     75   O  SGN F   4     -18.016  43.579 169.6140  0.00  0.00     0.000 OA
ATOM     76   O  SGN F   4     -17.389  42.505 171.6580  0.00  0.00     0.000 OA
ATOM     77   O  SGN F   4     -19.701  42.943 171.0900  0.00  0.00     0.000 OA
BRANCH 58 78
ATOM     78  O4  IDS F   5     -21.635  48.058 173.1220  0.00  0.00     0.000 O
BRANCH 78 82
ATOM     79  C1  IDS F   5     -23.447  50.621 171.6080  0.00  0.00     0.000 C
ATOM     80  C2  IDS F   5     -23.352  50.515 173.1240  0.00  0.00     0.000 C
ATOM     81  C3  IDS F   5     -23.731  49.119 173.6240  0.00  0.00     0.000 C
ATOM     82  C4  IDS F   5     -22.998  48.028 172.8140  0.00  0.00     0.000 C
ATOM     83  C5  IDS F   5     -23.187  48.281 171.3170  0.00  0.00     0.000 C
ATOM     84  O5  IDS F   5     -22.750  49.580 170.9750  0.00  0.00     0.000 O
ATOM     85   O  IDS F   5     -24.808  50.651 171.2580  0.00  0.00     0.000 OA
ATOM     86   O  IDS F   5     -22.022  50.748 173.4940  0.00  0.00     0.000 O
ATOM     87   S  IDS F   5     -21.469  51.126 174.9070  0.00  0.00     0.000 S
ATOM     88   O  IDS F   5     -22.340  50.524 175.8820  0.00  0.00     0.000 OA
ATOM     89   O  IDS F   5     -20.128  50.592 174.9700  0.00  0.00     0.000 OA
ATOM     90   O  IDS F   5     -21.526  52.563 174.9540  0.00  0.00     0.000 OA
ATOM     91   O  IDS F   5     -25.125  48.956 173.4580  0.00  0.00     0.000 O
ATOM     93  HD  IDS F   5     -25.150  48.460 172.7480  0.00  0.00     0.000 HD
ATOM     93   O  IDS F   5     -21.627  47.527 169.6910  0.00  0.00     0.000 OA
ATOM     94   O  IDS F   5     -22.911  46.082 170.4390  0.00  0.00     0.000 OA
ATOM     95   C  IDS F   5     -22.536  47.239 170.4270  0.00  0.00     0.000 C
ENDBRANCH 78 82
ENDBRANCH 58 78
ENDBRANCH 57 61
ENDBRANCH 41 57
ENDBRANCH 40 44
ENDBRANCH 20 40
ENDBRANCH 19 23
ENDBRANCH 1 19
TORSDOF 8
ENDMDL
MODEL 31
REMARK VINA RESULT:      -6.2      4.106      6.370
FFDIST PL LJ 2322 74 36 -1
ROOT
ATOM      1  C1  IDS F   1      -7.602  48.473 172.3600  0.00  0.00     0.000 C
ATOM      2  C2  IDS F   1      -7.579  49.562 171.2750  0.00  0.00     0.000 C
ATOM      3  C3  IDS F   1      -7.464  50.994 171.8520  0.00  0.00     0.000 C
ATOM      4  C4  IDS F   1      -6.536  51.102 173.0840  0.00  0.00     0.000 C
ATOM      5  C5  IDS F   1      -6.702  49.874 173.9850  0.00  0.00     0.000 C
ATOM      6  O5  IDS F   1      -6.541  48.709 173.2460  0.00  0.00     0.000 O
ATOM      7   S  IDS F   1      -6.243  49.958 168.9590  0.00  0.00     0.000 S
ATOM      8   O  IDS F   1      -6.483  51.364 169.0880  0.00  0.00     0.000 OA
ATOM      9   O  IDS F   1      -4.884  49.696 168.5840  0.00  0.00     0.000 OA
ATOM     10   O  IDS F   1      -7.207  49.290 168.1160  0.00  0.00     0.000 OA
ATOM     11   O  IDS F   1      -6.472  49.370 170.4170  0.00  0.00     0.000 O
ATOM     12   O  IDS F   1      -8.764  51.443 172.2260  0.00  0.00     0.000 O
ATOM     14  HD  IDS F   1      -8.977  51.971 172.8790  0.00  0.00     0.000 HD
ATOM     14   O  IDS F   1      -5.214  51.165 172.6090  0.00  0.00     0.000 O
ATOM     16  HD  IDS F   1      -5.426  51.693 173.2620  0.00  0.00     0.000 HD
ATOM     16   O  IDS F   1      -5.306  48.754 175.5550  0.00  0.00     0.000 OA
ATOM     17   O  IDS F   1      -5.603  50.796 175.9040  0.00  0.00     0.000 OA
ATOM     18   C  IDS F   1      -5.819  49.812 175.2150  0.00  0.00     0.000 C
ENDROOT
BRANCH 1 19
ATOM     19  O4  SGN F   2      -7.397  47.238 171.7630  0.00  0.00     0.000 O
BRANCH 19 23
ATOM     20  C1  SGN F   2     -10.671  44.715 172.3160  0.00  0.00     0.000 C
ATOM     21  C2  SGN F   2      -9.699  44.788 173.4820  0.00  0.00     0.000 C
ATOM     22  C3  SGN F   2      -8.882  46.087 173.4360  0.00  0.00     0.000 C
ATOM     23  C4  SGN F   2      -8.165  46.089 172.0470  0.00  0.00     0.000 C
ATOM     24  C5  SGN F   2      -9.243  46.039 171.0160  0.00  0.00     0.000 C
ATOM     25  O5  SGN F   2      -9.959  44.851 171.1180  0.00  0.00     0.000 O
ATOM     26   N  SGN F   2     -10.441  44.545 174.7420  0.00  0.00     0.000 N
ATOM     28  HD  SGN F   2     -10.461  44.912 175.5270  0.00  0.00     0.000 HD
ATOM     28   S  SGN F   2     -10.739  42.953 175.1720  0.00  0.00     0.000 S
ATOM     29   O  SGN F   2     -11.300  42.289 174.0170  0.00  0.00     0.000 OA
ATOM     30   O  SGN F   2      -9.445  42.423 175.5390  0.00  0.00     0.000 OA
ATOM     31   O  SGN F   2     -11.618  42.987 176.2840  0.00  0.00     0.000 OA
ATOM     32   O  SGN F   2      -7.930  46.057 174.4920  0.00  0.00     0.000 O
ATOM     34  HD  SGN F   2      -7.950  46.423 175.2760  0.00  0.00     0.000 HD
ATOM     34   C  SGN F   2      -8.704  46.090 169.6250  0.00  0.00     0.000 C
ATOM     35   O  SGN F   2      -7.794  45.046 169.5490  0.00  0.00     0.000 O
ATOM     36   S  SGN F   2      -7.088  44.532 168.2990  0.00  0.00     0.000 S
ATOM     37   O  SGN F   2      -5.684  44.589 168.6190  0.00  0.00     0.000 OA
ATOM     38   O  SGN F   2      -7.609  43.194 168.1180  0.00  0.00     0.000 OA
ATOM     39   O  SGN F   2      -7.454  45.422 167.2040  0.00  0.00     0.000 OA
BRANCH 20 40
ATOM     40  O4  IDS F   3     -11.663  45.703 172.4080  0.00  0.00     0.000 O
BRANCH 40 44
ATOM     41  C1  IDS F   3     -14.487  47.687 172.9370  0.00  0.00     0.000 C
ATOM     42  C2  IDS F   3     -13.513  47.446 174.0630  0.00  0.00     0.000 C
ATOM     43  C3  IDS F   3     -13.170  45.920 174.2560  0.00  0.00     0.000 C
ATOM     44  C4  IDS F   3     -12.898  45.232 172.9310  0.00  0.00     0.000 C
ATOM     45  C5  IDS F   3     -14.032  45.554 171.9580  0.00  0.00     0.000 C
ATOM     46  O5  IDS F   3     -14.120  46.947 171.7630  0.00  0.00     0.000 O
ATOM     47   O  IDS F   3     -10.974  48.602 175.7040  0.00  0.00     0.000 OA
ATOM     48   O  IDS F   3     -10.852  50.090 173.8680  0.00  0.00     0.000 OA
ATOM     49   O  IDS F   3     -12.831  49.957 175.2360  0.00  0.00     0.000 OA
ATOM     50   O  IDS F   3     -12.322  48.197 173.8030  0.00  0.00     0.000 O
ATOM     51   S  IDS F   3     -11.706  49.283 174.6980  0.00  0.00     0.000 S
ATOM     52   O  IDS F   3     -14.279  45.253 174.8500  0.00  0.00     0.000 O
ATOM     54  HD  IDS F   3     -13.994  46.069 174.9040  0.00  0.00     0.000 HD
ATOM     54   C  IDS F   3     -13.963  44.824 170.6130  0.00  0.00     0.000 C
ATOM     55   O  IDS F   3     -13.509  45.375 169.6130  0.00  0.00     0.000 OA
ATOM     56   O  IDS F   3     -14.352  43.654 170.4960  0.00  0.00     0.000 OA
BRANCH 41 57
ATOM     57  O4  SGN F   4     -15.774  47.372 173.3820  0.00  0.00     0.000 O
BRANCH 57 61
ATOM     58  C1  SGN F   4     -19.477  49.090 173.0960  0.00  0.00     0.000 C
ATOM     59  C2  SGN F   4     -19.087  48.125 171.9660  0.00  0.00     0.000 C
ATOM     60  C3  SGN F   4     -17.906  47.256 172.3600  0.00  0.00     0.000 C
ATOM     61  C4  SGN F   4     -16.775  48.165 172.8360  0.00  0.00     0.000 C
ATOM     62  C5  SGN F   4     -17.291  49.128 173.9230  0.00  0.00     0.000 C
ATOM     63  O5  SGN F   4     -18.373  49.873 173.4540  0.00  0.00     0.000 O
ATOM     64   N  SGN F   4     -20.225  47.322 171.5610  0.00  0.00     0.000 N
ATOM     66  HD  SGN F   4     -19.939  48.121 171.7340  0.00  0.00     0.000 HD
ATOM     66   S  SGN F   4     -21.226  47.946 170.4360  0.00  0.00     0.000 S
ATOM     67   O  SGN F   4     -21.904  49.059 171.0740  0.00  0.00     0.000 OA
ATOM     68   O  SGN F   4     -20.421  48.378 169.2950  0.00  0.00     0.000 OA
ATOM     69   O  SGN F   4     -22.120  46.848 170.1420  0.00  0.00     0.000 OA
ATOM     70   O  SGN F   4     -17.443  46.534 171.2280  0.00  0.00     0.000 O
ATOM     72  HD  SGN F   4     -17.157  47.333 171.4010  0.00  0.00     0.000 HD
ATOM     72   C  SGN F   4     -16.285  50.155 174.3720  0.00  0.00     0.000 C
ATOM     73   O  SGN F   4     -15.924  50.912 173.2400  0.00  0.00     0.000 O
ATOM     74   S  SGN F   4     -15.484  52.405 173.2560  0.00  0.00     0.000 S
ATOM     75   O  SGN F   4     -14.776  52.653 174.4680  0.00  0.00     0.000 OA
ATOM     76   O  SGN F   4     -14.643  52.618 172.0800  0.00  0.00     0.000 OA
ATOM     77   O  SGN F   4     -16.705  53.111 173.2480  0.00  0.00     0.000 OA
BRANCH 58 78
ATOM     78  O4  IDS F   5     -19.988  48.384 174.2010  0.00  0.00     0.000 O
BRANCH 78 82
ATOM     79  C1  IDS F   5     -21.558  47.324 177.1270  0.00  0.00     0.000 C
ATOM     80  C2  IDS F   5     -21.965  46.766 175.7700  0.00  0.00     0.000 C
ATOM     81  C3  IDS F   5     -22.268  47.878 174.7630  0.00  0.00     0.000 C
ATOM     82  C4  IDS F   5     -21.145  48.937 174.7590  0.00  0.00     0.000 C
ATOM     83  C5  IDS F   5     -20.854  49.388 176.1920  0.00  0.00     0.000 C
ATOM     84  O5  IDS F   5     -20.535  48.278 177.0050  0.00  0.00     0.000 O
ATOM     85   O  IDS F   5     -22.708  47.842 177.7490  0.00  0.00     0.000 OA
ATOM     86   O  IDS F   5     -20.892  46.023 175.2660  0.00  0.00     0.000 O
ATOM     87   S  IDS F   5     -20.915  44.955 174.1240  0.00  0.00     0.000 S
ATOM     88   O  IDS F   5     -21.958  45.331 173.2070  0.00  0.00     0.000 OA
ATOM     89   O  IDS F   5     -19.608  44.996 173.5080  0.00  0.00     0.000 OA
ATOM     90   O  IDS F   5     -21.207  43.711 174.7870  0.00  0.00     0.000 OA
ATOM     91   O  IDS F   5     -23.481  48.497 175.1430  0.00  0.00     0.000 O
ATOM     93  HD  IDS F   5     -23.187  49.223 175.5120  0.00  0.00     0.000 HD
ATOM     93   O  IDS F   5     -18.740  50.247 176.8520  0.00  0.00     0.000 OA
ATOM     94   O  IDS F   5     -19.959  51.566 175.8180  0.00  0.00     0.000 OA
ATOM     95   C  IDS F   5     -19.787  50.461 176.2970  0.00  0.00     0.000 C
ENDBRANCH 78 82
ENDBRANCH 58 78
ENDBRANCH 57 61
ENDBRANCH 41 57
ENDBRANCH 40 44
ENDBRANCH 20 40
ENDBRANCH 19 23
ENDBRANCH 1 19
TORSDOF 8
ENDMDL
MODEL 32
REMARK VINA RESULT:      -6.2      3.360      5.210
FFDIST PL LJ 2322 74 36 -1
ROOT
ATOM      1  C1  IDS F   1      -7.813  46.454 172.5220  0.00  0.00     0.000 C
ATOM      2  C2  IDS F   1      -7.036  47.762 172.7510  0.00  0.00     0.000 C
ATOM      3  C3  IDS F   1      -5.523  47.631 172.4540  0.00  0.00     0.000 C
ATOM      4  C4  IDS F   1      -5.197  46.735 171.2360  0.00  0.00     0.000 C
ATOM      5  C5  IDS F   1      -6.140  45.527 171.1960  0.00  0.00     0.000 C
ATOM      6  O5  IDS F   1      -7.463  45.947 171.2630  0.00  0.00     0.000 O
ATOM      7   S  IDS F   1      -7.358  50.351 172.0490  0.00  0.00     0.000 S
ATOM      8   O  IDS F   1      -5.948  50.545 172.2090  0.00  0.00     0.000 OA
ATOM      9   O  IDS F   1      -7.830  50.961 170.8400  0.00  0.00     0.000 OA
ATOM     10   O  IDS F   1      -8.122  50.727 173.2150  0.00  0.00     0.000 OA
ATOM     11   O  IDS F   1      -7.539  48.779 171.9090  0.00  0.00     0.000 O
ATOM     12   O  IDS F   1      -4.875  47.086 173.6000  0.00  0.00     0.000 O
ATOM     14  HD  IDS F   1      -4.183  46.565 173.6230  0.00  0.00     0.000 HD
ATOM     14   O  IDS F   1      -5.379  47.515 170.0800  0.00  0.00     0.000 O
ATOM     16  HD  IDS F   1      -4.687  46.994 170.1030  0.00  0.00     0.000 HD
ATOM     16   O  IDS F   1      -6.957  44.103 169.4720  0.00  0.00     0.000 OA
ATOM     17   O  IDS F   1      -4.875  44.247 169.6150  0.00  0.00     0.000 OA
ATOM     18   C  IDS F   1      -5.975  44.577 170.0270  0.00  0.00     0.000 C
ENDROOT
BRANCH 1 19
ATOM     19  O4  SGN F   2      -9.171  46.734 172.5110  0.00  0.00     0.000 O
BRANCH 19 23
ATOM     20  C1  SGN F   2     -12.820  45.376 171.0160  0.00  0.00     0.000 C
ATOM     21  C2  SGN F   2     -11.946  44.316 171.6670  0.00  0.00     0.000 C
ATOM     22  C3  SGN F   2     -10.944  44.953 172.6400  0.00  0.00     0.000 C
ATOM     23  C4  SGN F   2     -10.124  45.978 171.7940  0.00  0.00     0.000 C
ATOM     24  C5  SGN F   2     -11.108  46.957 171.2460  0.00  0.00     0.000 C
ATOM     25  O5  SGN F   2     -12.000  46.321 170.3880  0.00  0.00     0.000 O
ATOM     26   N  SGN F   2     -12.817  43.264 172.2460  0.00  0.00     0.000 N
ATOM     28  HD  SGN F   2     -12.847  42.831 172.9950  0.00  0.00     0.000 HD
ATOM     28   S  SGN F   2     -13.384  42.072 171.2130  0.00  0.00     0.000 S
ATOM     29   O  SGN F   2     -13.941  42.731 170.0530  0.00  0.00     0.000 OA
ATOM     30   O  SGN F   2     -12.218  41.281 170.8910  0.00  0.00     0.000 OA
ATOM     31   O  SGN F   2     -14.336  41.317 171.9430  0.00  0.00     0.000 OA
ATOM     32   O  SGN F   2     -10.097  43.928 173.1460  0.00  0.00     0.000 O
ATOM     34  HD  SGN F   2     -10.126  43.495 173.8950  0.00  0.00     0.000 HD
ATOM     34   C  SGN F   2     -10.456  48.039 170.4520  0.00  0.00     0.000 C
ATOM     35   O  SGN F   2      -9.709  47.382 169.4860  0.00  0.00     0.000 O
ATOM     36   S  SGN F   2      -8.988  48.008 168.2970  0.00  0.00     0.000 S
ATOM     37   O  SGN F   2      -7.622  47.565 168.4200  0.00  0.00     0.000 OA
ATOM     38   O  SGN F   2      -9.686  47.491 167.1410  0.00  0.00     0.000 OA
ATOM     39   O  SGN F   2      -9.126  49.454 168.4270  0.00  0.00     0.000 OA
BRANCH 20 40
ATOM     40  O4  IDS F   3     -13.657  46.001 171.9520  0.00  0.00     0.000 O
BRANCH 40 44
ATOM     41  C1  IDS F   3     -16.172  47.791 173.5850  0.00  0.00     0.000 C
ATOM     42  C2  IDS F   3     -15.864  46.374 173.9990  0.00  0.00     0.000 C
ATOM     43  C3  IDS F   3     -15.817  45.379 172.7770  0.00  0.00     0.000 C
ATOM     44  C4  IDS F   3     -15.036  45.956 171.6110  0.00  0.00     0.000 C
ATOM     45  C5  IDS F   3     -15.547  47.366 171.3170  0.00  0.00     0.000 C
ATOM     46  O5  IDS F   3     -15.383  48.186 172.4520  0.00  0.00     0.000 O
ATOM     47   O  IDS F   3     -14.269  44.474 176.0790  0.00  0.00     0.000 OA
ATOM     48   O  IDS F   3     -13.149  46.495 176.5910  0.00  0.00     0.000 OA
ATOM     49   O  IDS F   3     -15.538  46.298 176.8330  0.00  0.00     0.000 OA
ATOM     50   O  IDS F   3     -14.615  46.364 174.7000  0.00  0.00     0.000 O
ATOM     51   S  IDS F   3     -14.372  45.887 176.1390  0.00  0.00     0.000 S
ATOM     52   O  IDS F   3     -17.140  45.132 172.3110  0.00  0.00     0.000 O
ATOM     54  HD  IDS F   3     -16.826  45.329 173.0940  0.00  0.00     0.000 HD
ATOM     54   C  IDS F   3     -14.941  48.034 170.0780  0.00  0.00     0.000 C
ATOM     55   O  IDS F   3     -14.018  48.839 170.1770  0.00  0.00     0.000 OA
ATOM     56   O  IDS F   3     -15.355  47.773 168.9410  0.00  0.00     0.000 OA
BRANCH 41 57
ATOM     57  O4  SGN F   4     -17.544  47.898 173.3410  0.00  0.00     0.000 O
BRANCH 57 61
ATOM     58  C1  SGN F   4     -20.306  50.795 174.1960  0.00  0.00     0.000 C
ATOM     59  C2  SGN F   4     -19.856  50.697 172.7290  0.00  0.00     0.000 C
ATOM     60  C3  SGN F   4     -19.165  49.374 172.4480  0.00  0.00     0.000 C
ATOM     61  C4  SGN F   4     -18.044  49.188 173.4690  0.00  0.00     0.000 C
ATOM     62  C5  SGN F   4     -18.594  49.366 174.8970  0.00  0.00     0.000 C
ATOM     63  O5  SGN F   4     -19.206  50.611 175.0430  0.00  0.00     0.000 O
ATOM     64   N  SGN F   4     -20.977  50.911 171.8340  0.00  0.00     0.000 N
ATOM     66  HD  SGN F   4     -20.550  51.204 172.5280  0.00  0.00     0.000 HD
ATOM     66   S  SGN F   4     -21.336  52.449 171.4300  0.00  0.00     0.000 S
ATOM     67   O  SGN F   4     -21.842  53.073 172.6380  0.00  0.00     0.000 OA
ATOM     68   O  SGN F   4     -20.114  53.093 170.9510  0.00  0.00     0.000 OA
ATOM     69   O  SGN F   4     -22.355  52.296 170.4160  0.00  0.00     0.000 OA
ATOM     70   O  SGN F   4     -18.580  49.405 171.1540  0.00  0.00     0.000 O
ATOM     72  HD  SGN F   4     -18.153  49.698 171.8480  0.00  0.00     0.000 HD
ATOM     72   C  SGN F   4     -17.543  49.329 175.9770  0.00  0.00     0.000 C
ATOM     73   O  SGN F   4     -16.633  50.372 175.7140  0.00  0.00     0.000 O
ATOM     74   S  SGN F   4     -15.821  51.152 176.7880  0.00  0.00     0.000 S
ATOM     75   O  SGN F   4     -15.509  50.257 177.8540  0.00  0.00     0.000 OA
ATOM     76   O  SGN F   4     -14.617  51.660 176.1330  0.00  0.00     0.000 OA
ATOM     77   O  SGN F   4     -16.720  52.145 177.2300  0.00  0.00     0.000 OA
BRANCH 58 78
ATOM     78  O4  IDS F   5     -21.327  49.866 174.4690  0.00  0.00     0.000 O
BRANCH 78 82
ATOM     79  C1  IDS F   5     -23.985  47.996 175.7280  0.00  0.00     0.000 C
ATOM     80  C2  IDS F   5     -24.135  48.817 174.4550  0.00  0.00     0.000 C
ATOM     81  C3  IDS F   5     -23.688  50.267 174.6530  0.00  0.00     0.000 C
ATOM     82  C4  IDS F   5     -22.311  50.327 175.3480  0.00  0.00     0.000 C
ATOM     83  C5  IDS F   5     -22.325  49.449 176.6020  0.00  0.00     0.000 C
ATOM     84  O5  IDS F   5     -22.698  48.126 176.2760  0.00  0.00     0.000 O
ATOM     85   O  IDS F   5     -24.995  48.390 176.6230  0.00  0.00     0.000 OA
ATOM     86   O  IDS F   5     -23.310  48.253 173.4740  0.00  0.00     0.000 O
ATOM     87   S  IDS F   5     -23.375  48.464 171.9260  0.00  0.00     0.000 S
ATOM     88   O  IDS F   5     -23.876  49.794 171.6960  0.00  0.00     0.000 OA
ATOM     89   O  IDS F   5     -22.023  48.300 171.4410  0.00  0.00     0.000 OA
ATOM     90   O  IDS F   5     -24.289  47.458 171.4530  0.00  0.00     0.000 OA
ATOM     91   O  IDS F   5     -24.643  50.913 175.4710  0.00  0.00     0.000 O
ATOM     93  HD  IDS F   5     -24.231  50.921 176.2320  0.00  0.00     0.000 HD
ATOM     93   O  IDS F   5     -20.352  48.476 177.4970  0.00  0.00     0.000 OA
ATOM     94   O  IDS F   5     -20.626  50.488 177.9120  0.00  0.00     0.000 OA
ATOM     95   C  IDS F   5     -21.026  49.468 177.3840  0.00  0.00     0.000 C
ENDBRANCH 78 82
ENDBRANCH 58 78
ENDBRANCH 57 61
ENDBRANCH 41 57
ENDBRANCH 40 44
ENDBRANCH 20 40
ENDBRANCH 19 23
ENDBRANCH 1 19
TORSDOF 8
ENDMDL
MODEL 33
REMARK VINA RESULT:      -6.2      2.999      6.831
FFDIST PL LJ 2322 74 36 -1
ROOT
ATOM      1  C1  IDS F   1      -7.562  48.993 172.6410  0.00  0.00     0.000 C
ATOM      2  C2  IDS F   1      -7.307  49.460 174.0840  0.00  0.00     0.000 C
ATOM      3  C3  IDS F   1      -5.990  50.258 174.2410  0.00  0.00     0.000 C
ATOM      4  C4  IDS F   1      -5.679  51.197 173.0520  0.00  0.00     0.000 C
ATOM      5  C5  IDS F   1      -6.071  50.529 171.7290  0.00  0.00     0.000 C
ATOM      6  O5  IDS F   1      -7.387  50.089 171.7840  0.00  0.00     0.000 O
ATOM      7   S  IDS F   1      -8.753  50.696 176.0020  0.00  0.00     0.000 S
ATOM      8   O  IDS F   1      -7.533  51.145 176.6010  0.00  0.00     0.000 OA
ATOM      9   O  IDS F   1      -9.719  51.754 175.9370  0.00  0.00     0.000 OA
ATOM     10   O  IDS F   1      -9.272  49.487 176.5990  0.00  0.00     0.000 OA
ATOM     11   O  IDS F   1      -8.357  50.301 174.5150  0.00  0.00     0.000 O
ATOM     12   O  IDS F   1      -4.910  49.339 174.3840  0.00  0.00     0.000 O
ATOM     14  HD  IDS F   1      -4.093  49.433 174.1130  0.00  0.00     0.000 HD
ATOM     14   O  IDS F   1      -6.436  52.369 173.2330  0.00  0.00     0.000 O
ATOM     16  HD  IDS F   1      -5.619  52.462 172.9620  0.00  0.00     0.000 HD
ATOM     16   O  IDS F   1      -6.708  51.330 169.5800  0.00  0.00     0.000 OA
ATOM     17   O  IDS F   1      -4.875  52.035 170.3010  0.00  0.00     0.000 OA
ATOM     18   C  IDS F   1      -5.870  51.349 170.4710  0.00  0.00     0.000 C
ENDROOT
BRANCH 1 19
ATOM     19  O4  SGN F   2      -8.878  48.567 172.5320  0.00  0.00     0.000 O
BRANCH 19 23
ATOM     20  C1  SGN F   2     -11.181  45.135 171.9790  0.00  0.00     0.000 C
ATOM     21  C2  SGN F   2      -9.903  44.941 172.7800  0.00  0.00     0.000 C
ATOM     22  C3  SGN F   2      -9.434  46.269 173.3920  0.00  0.00     0.000 C
ATOM     23  C4  SGN F   2      -9.253  47.250 172.1890  0.00  0.00     0.000 C
ATOM     24  C5  SGN F   2     -10.585  47.353 171.5240  0.00  0.00     0.000 C
ATOM     25  O5  SGN F   2     -10.966  46.119 171.0060  0.00  0.00     0.000 O
ATOM     26   N  SGN F   2     -10.103  43.831 173.7410  0.00  0.00     0.000 N
ATOM     28  HD  SGN F   2      -9.927  43.701 174.5790  0.00  0.00     0.000 HD
ATOM     28   S  SGN F   2      -9.907  42.267 173.1710  0.00  0.00     0.000 S
ATOM     29   O  SGN F   2     -10.683  42.147 171.9580  0.00  0.00     0.000 OA
ATOM     30   O  SGN F   2      -8.487  42.138 172.9330  0.00  0.00     0.000 OA
ATOM     31   O  SGN F   2     -10.339  41.397 174.2040  0.00  0.00     0.000 OA
ATOM     32   O  SGN F   2      -8.192  46.045 174.0480  0.00  0.00     0.000 O
ATOM     34  HD  SGN F   2      -8.016  45.916 174.8860  0.00  0.00     0.000 HD
ATOM     34   C  SGN F   2     -10.578  48.309 170.3780  0.00  0.00     0.000 C
ATOM     35   O  SGN F   2      -9.559  47.872 169.5460  0.00  0.00     0.000 O
ATOM     36   S  SGN F   2      -9.235  48.378 168.1440  0.00  0.00     0.000 S
ATOM     37   O  SGN F   2      -7.849  48.768 168.2030  0.00  0.00     0.000 OA
ATOM     38   O  SGN F   2      -9.504  47.246 167.2840  0.00  0.00     0.000 OA
ATOM     39   O  SGN F   2     -10.126  49.500 167.8780  0.00  0.00     0.000 OA
BRANCH 20 40
ATOM     40  O4  IDS F   3     -12.259  45.490 172.8030  0.00  0.00     0.000 O
BRANCH 40 44
ATOM     41  C1  IDS F   3     -15.474  46.449 173.7710  0.00  0.00     0.000 C
ATOM     42  C2  IDS F   3     -15.260  45.751 172.4510  0.00  0.00     0.000 C
ATOM     43  C3  IDS F   3     -14.111  46.408 171.5940  0.00  0.00     0.000 C
ATOM     44  C4  IDS F   3     -12.886  46.712 172.4350  0.00  0.00     0.000 C
ATOM     45  C5  IDS F   3     -13.316  47.475 173.6880  0.00  0.00     0.000 C
ATOM     46  O5  IDS F   3     -14.226  46.700 174.4360  0.00  0.00     0.000 O
ATOM     47   O  IDS F   3     -15.331  42.929 170.8680  0.00  0.00     0.000 OA
ATOM     48   O  IDS F   3     -15.441  42.050 173.0620  0.00  0.00     0.000 OA
ATOM     49   O  IDS F   3     -17.109  43.587 172.2500  0.00  0.00     0.000 OA
ATOM     50   O  IDS F   3     -14.969  44.373 172.7060  0.00  0.00     0.000 O
ATOM     51   S  IDS F   3     -15.759  43.157 172.2010  0.00  0.00     0.000 S
ATOM     52   O  IDS F   3     -14.565  47.646 171.0570  0.00  0.00     0.000 O
ATOM     54  HD  IDS F   3     -14.981  46.916 171.2670  0.00  0.00     0.000 HD
ATOM     54   C  IDS F   3     -12.169  47.966 174.5780  0.00  0.00     0.000 C
ATOM     55   O  IDS F   3     -11.830  47.343 175.5800  0.00  0.00     0.000 OA
ATOM     56   O  IDS F   3     -11.544  49.000 174.3060  0.00  0.00     0.000 OA
BRANCH 41 57
ATOM     57  O4  SGN F   4     -16.202  47.621 173.5460  0.00  0.00     0.000 O
BRANCH 57 61
ATOM     58  C1  SGN F   4     -18.771  49.953 175.7160  0.00  0.00     0.000 C
ATOM     59  C2  SGN F   4     -17.274  50.268 175.8690  0.00  0.00     0.000 C
ATOM     60  C3  SGN F   4     -16.458  49.643 174.7510  0.00  0.00     0.000 C
ATOM     61  C4  SGN F   4     -16.790  48.153 174.6870  0.00  0.00     0.000 C
ATOM     62  C5  SGN F   4     -18.315  47.953 174.5960  0.00  0.00     0.000 C
ATOM     63  O5  SGN F   4     -18.962  48.567 175.6680  0.00  0.00     0.000 O
ATOM     64   N  SGN F   4     -17.056  51.700 175.9470  0.00  0.00     0.000 N
ATOM     66  HD  SGN F   4     -17.517  51.029 176.2440  0.00  0.00     0.000 HD
ATOM     66   S  SGN F   4     -17.167  52.400 177.4160  0.00  0.00     0.000 S
ATOM     67   O  SGN F   4     -18.566  52.326 177.7910  0.00  0.00     0.000 OA
ATOM     68   O  SGN F   4     -16.312  51.659 178.3410  0.00  0.00     0.000 OA
ATOM     69   O  SGN F   4     -16.730  53.756 177.1690  0.00  0.00     0.000 OA
ATOM     70   O  SGN F   4     -15.073  49.772 175.0380  0.00  0.00     0.000 O
ATOM     72  HD  SGN F   4     -15.534  49.102 175.3350  0.00  0.00     0.000 HD
ATOM     72   C  SGN F   4     -18.758  46.514 174.6550  0.00  0.00     0.000 C
ATOM     73   O  SGN F   4     -18.311  45.987 175.8830  0.00  0.00     0.000 O
ATOM     74   S  SGN F   4     -19.016  44.859 176.6900  0.00  0.00     0.000 S
ATOM     75   O  SGN F   4     -19.624  43.958 175.7680  0.00  0.00     0.000 OA
ATOM     76   O  SGN F   4     -17.990  44.202 177.4990  0.00  0.00     0.000 OA
ATOM     77   O  SGN F   4     -20.003  45.545 177.4280  0.00  0.00     0.000 OA
BRANCH 58 78
ATOM     78  O4  IDS F   5     -19.300  50.586 174.5760  0.00  0.00     0.000 O
BRANCH 78 82
ATOM     79  C1  IDS F   5     -21.217  52.163 172.1290  0.00  0.00     0.000 C
ATOM     80  C2  IDS F   5     -20.250  52.953 173.0000  0.00  0.00     0.000 C
ATOM     81  C3  IDS F   5     -20.471  52.682 174.4890  0.00  0.00     0.000 C
ATOM     82  C4  IDS F   5     -20.559  51.166 174.7660  0.00  0.00     0.000 C
ATOM     83  C5  IDS F   5     -21.565  50.523 173.8090  0.00  0.00     0.000 C
ATOM     84  O5  IDS F   5     -21.219  50.800 172.4670  0.00  0.00     0.000 O
ATOM     85   O  IDS F   5     -22.489  52.750 172.2470  0.00  0.00     0.000 OA
ATOM     86   O  IDS F   5     -18.948  52.543 172.6860  0.00  0.00     0.000 O
ATOM     87   S  IDS F   5     -17.606  53.282 172.9990  0.00  0.00     0.000 S
ATOM     88   O  IDS F   5     -17.800  54.022 174.2170  0.00  0.00     0.000 OA
ATOM     89   O  IDS F   5     -16.603  52.251 173.1410  0.00  0.00     0.000 OA
ATOM     90   O  IDS F   5     -17.391  54.151 171.8720  0.00  0.00     0.000 OA
ATOM     91   O  IDS F   5     -21.689  53.289 174.8710  0.00  0.00     0.000 O
ATOM     93  HD  IDS F   5     -22.214  52.601 174.9010  0.00  0.00     0.000 HD
ATOM     93   O  IDS F   5     -21.440  48.237 173.1760  0.00  0.00     0.000 OA
ATOM     94   O  IDS F   5     -22.229  48.604 175.0570  0.00  0.00     0.000 OA
ATOM     95   C  IDS F   5     -21.757  49.033 174.0220  0.00  0.00     0.000 C
ENDBRANCH 78 82
ENDBRANCH 58 78
ENDBRANCH 57 61
ENDBRANCH 41 57
ENDBRANCH 40 44
ENDBRANCH 20 40
ENDBRANCH 19 23
ENDBRANCH 1 19
TORSDOF 8
ENDMDL
MODEL 34
REMARK VINA RESULT:      -6.1      3.027      6.735
FFDIST PL LJ 2322 74 36 -1
ROOT
ATOM      1  C1  IDS F   1      -7.761  46.806 171.7480  0.00  0.00     0.000 C
ATOM      2  C2  IDS F   1      -6.722  45.787 172.2420  0.00  0.00     0.000 C
ATOM      3  C3  IDS F   1      -5.262  46.235 171.9880  0.00  0.00     0.000 C
ATOM      4  C4  IDS F   1      -5.025  47.749 172.1930  0.00  0.00     0.000 C
ATOM      5  C5  IDS F   1      -6.223  48.551 171.6700  0.00  0.00     0.000 C
ATOM      6  O5  IDS F   1      -7.402  48.074 172.2290  0.00  0.00     0.000 O
ATOM      7   S  IDS F   1      -6.319  44.381 174.5140  0.00  0.00     0.000 S
ATOM      8   O  IDS F   1      -4.933  44.269 174.1710  0.00  0.00     0.000 OA
ATOM      9   O  IDS F   1      -6.485  44.730 175.8950  0.00  0.00     0.000 OA
ATOM     10   O  IDS F   1      -7.099  43.232 174.1180  0.00  0.00     0.000 OA
ATOM     11   O  IDS F   1      -6.860  45.588 173.6340  0.00  0.00     0.000 O
ATOM     12   O  IDS F   1      -4.904  45.899 170.6500  0.00  0.00     0.000 O
ATOM     14  HD  IDS F   1      -4.367  46.325 170.1200  0.00  0.00     0.000 HD
ATOM     14   O  IDS F   1      -4.875  47.969 173.5740  0.00  0.00     0.000 O
ATOM     16  HD  IDS F   1      -4.338  48.395 173.0440  0.00  0.00     0.000 HD
ATOM     16   O  IDS F   1      -7.156  50.681 172.1800  0.00  0.00     0.000 OA
ATOM     17   O  IDS F   1      -5.132  50.684 171.6480  0.00  0.00     0.000 OA
ATOM     18   C  IDS F   1      -6.159  50.055 171.8450  0.00  0.00     0.000 C
ENDROOT
BRANCH 1 19
ATOM     19  O4  SGN F   2      -9.000  46.480 172.2790  0.00  0.00     0.000 O
BRANCH 19 23
ATOM     20  C1  SGN F   2     -12.712  45.067 171.0080  0.00  0.00     0.000 C
ATOM     21  C2  SGN F   2     -11.736  44.002 171.4850  0.00  0.00     0.000 C
ATOM     22  C3  SGN F   2     -10.676  44.608 172.4150  0.00  0.00     0.000 C
ATOM     23  C4  SGN F   2      -9.983  45.739 171.5880  0.00  0.00     0.000 C
ATOM     24  C5  SGN F   2     -11.055  46.709 171.2170  0.00  0.00     0.000 C
ATOM     25  O5  SGN F   2     -11.995  46.100 170.3910  0.00  0.00     0.000 O
ATOM     26   N  SGN F   2     -12.504  42.865 172.0470  0.00  0.00     0.000 N
ATOM     28  HD  SGN F   2     -12.444  42.372 172.7560  0.00  0.00     0.000 HD
ATOM     28   S  SGN F   2     -13.114  41.734 170.9710  0.00  0.00     0.000 S
ATOM     29   O  SGN F   2     -13.805  42.456 169.9270  0.00  0.00     0.000 OA
ATOM     30   O  SGN F   2     -11.951  41.031 170.4790  0.00  0.00     0.000 OA
ATOM     31   O  SGN F   2     -13.960  40.875 171.7160  0.00  0.00     0.000 OA
ATOM     32   O  SGN F   2      -9.742  43.590 172.7520  0.00  0.00     0.000 O
ATOM     34  HD  SGN F   2      -9.682  43.096 173.4620  0.00  0.00     0.000 HD
ATOM     34   C  SGN F   2     -10.527  47.883 170.4640  0.00  0.00     0.000 C
ATOM     35   O  SGN F   2      -9.847  47.345 169.3810  0.00  0.00     0.000 O
ATOM     36   S  SGN F   2      -9.267  48.101 168.1910  0.00  0.00     0.000 S
ATOM     37   O  SGN F   2      -7.878  47.719 168.1520  0.00  0.00     0.000 OA
ATOM     38   O  SGN F   2     -10.048  47.645 167.0620  0.00  0.00     0.000 OA
ATOM     39   O  SGN F   2      -9.454  49.522 168.4560  0.00  0.00     0.000 OA
BRANCH 20 40
ATOM     40  O4  IDS F   3     -13.483  45.571 172.0650  0.00  0.00     0.000 O
BRANCH 40 44
ATOM     41  C1  IDS F   3     -16.461  46.646 173.5380  0.00  0.00     0.000 C
ATOM     42  C2  IDS F   3     -16.495  45.898 172.2290  0.00  0.00     0.000 C
ATOM     43  C3  IDS F   3     -15.500  46.494 171.1610  0.00  0.00     0.000 C
ATOM     44  C4  IDS F   3     -14.141  46.795 171.7650  0.00  0.00     0.000 C
ATOM     45  C5  IDS F   3     -14.331  47.612 173.0430  0.00  0.00     0.000 C
ATOM     46  O5  IDS F   3     -15.112  46.888 173.9660  0.00  0.00     0.000 O
ATOM     47   O  IDS F   3     -16.895  43.025 170.7920  0.00  0.00     0.000 OA
ATOM     48   O  IDS F   3     -16.638  42.226 173.0050  0.00  0.00     0.000 OA
ATOM     49   O  IDS F   3     -18.392  43.777 172.4350  0.00  0.00     0.000 OA
ATOM     50   O  IDS F   3     -16.190  44.522 172.4830  0.00  0.00     0.000 O
ATOM     51   S  IDS F   3     -17.080  43.310 172.1690  0.00  0.00     0.000 S
ATOM     52   O  IDS F   3     -16.016  47.724 170.6630  0.00  0.00     0.000 O
ATOM     54  HD  IDS F   3     -16.403  47.013 170.9710  0.00  0.00     0.000 HD
ATOM     54   C  IDS F   3     -13.037  48.104 173.7000  0.00  0.00     0.000 C
ATOM     55   O  IDS F   3     -12.541  47.507 174.6520  0.00  0.00     0.000 OA
ATOM     56   O  IDS F   3     -12.449  49.111 173.2850  0.00  0.00     0.000 OA
BRANCH 41 57
ATOM     57  O4  SGN F   4     -17.194  47.828 173.3980  0.00  0.00     0.000 O
BRANCH 57 61
ATOM     58  C1  SGN F   4     -19.375  50.276 175.8460  0.00  0.00     0.000 C
ATOM     59  C2  SGN F   4     -17.853  50.491 175.8530  0.00  0.00     0.000 C
ATOM     60  C3  SGN F   4     -17.195  49.837 174.6500  0.00  0.00     0.000 C
ATOM     61  C4  SGN F   4     -17.629  48.373 174.5990  0.00  0.00     0.000 C
ATOM     62  C5  SGN F   4     -19.166  48.274 174.6580  0.00  0.00     0.000 C
ATOM     63  O5  SGN F   4     -19.661  48.906 175.7990  0.00  0.00     0.000 O
ATOM     64   N  SGN F   4     -17.534  51.903 175.9290  0.00  0.00     0.000 N
ATOM     66  HD  SGN F   4     -18.006  51.258 176.2620  0.00  0.00     0.000 HD
ATOM     66   S  SGN F   4     -17.452  52.579 177.4110  0.00  0.00     0.000 S
ATOM     67   O  SGN F   4     -18.809  52.588 177.9240  0.00  0.00     0.000 OA
ATOM     68   O  SGN F   4     -16.560  51.765 178.2350  0.00  0.00     0.000 OA
ATOM     69   O  SGN F   4     -16.952  53.908 177.1410  0.00  0.00     0.000 OA
ATOM     70   O  SGN F   4     -15.783  49.871 174.7990  0.00  0.00     0.000 O
ATOM     72  HD  SGN F   4     -16.255  49.226 175.1320  0.00  0.00     0.000 HD
ATOM     72   C  SGN F   4     -19.695  46.866 174.7410  0.00  0.00     0.000 C
ATOM     73   O  SGN F   4     -19.165  46.286 175.9110  0.00  0.00     0.000 O
ATOM     74   S  SGN F   4     -19.860  45.190 176.7690  0.00  0.00     0.000 S
ATOM     75   O  SGN F   4     -20.614  44.348 175.9000  0.00  0.00     0.000 OA
ATOM     76   O  SGN F   4     -18.804  44.452 177.4610  0.00  0.00     0.000 OA
ATOM     77   O  SGN F   4     -20.721  45.923 177.6110  0.00  0.00     0.000 OA
BRANCH 58 78
ATOM     78  O4  IDS F   5     -19.972  50.965 174.7740  0.00  0.00     0.000 O
BRANCH 78 82
ATOM     79  C1  IDS F   5     -22.070  52.651 172.5590  0.00  0.00     0.000 C
ATOM     80  C2  IDS F   5     -20.885  53.353 173.2090  0.00  0.00     0.000 C
ATOM     81  C3  IDS F   5     -20.886  53.186 174.7300  0.00  0.00     0.000 C
ATOM     82  C4  IDS F   5     -21.105  51.709 175.1200  0.00  0.00     0.000 C
ATOM     83  C5  IDS F   5     -22.323  51.153 174.3810  0.00  0.00     0.000 C
ATOM     84  O5  IDS F   5     -22.174  51.317 172.9860  0.00  0.00     0.000 O
ATOM     85   O  IDS F   5     -23.227  53.399 172.8370  0.00  0.00     0.000 OA
ATOM     86   O  IDS F   5     -19.711  52.767 172.7220  0.00  0.00     0.000 O
ATOM     87   S  IDS F   5     -18.258  53.344 172.7670  0.00  0.00     0.000 S
ATOM     88   O  IDS F   5     -18.159  54.162 173.9470  0.00  0.00     0.000 OA
ATOM     89   O  IDS F   5     -17.374  52.202 172.8190  0.00  0.00     0.000 OA
ATOM     90   O  IDS F   5     -18.133  54.123 171.5630  0.00  0.00     0.000 OA
ATOM     91   O  IDS F   5     -21.945  53.961 175.2570  0.00  0.00     0.000 O
ATOM     93  HD  IDS F   5     -22.535  53.347 175.4170  0.00  0.00     0.000 HD
ATOM     93   O  IDS F   5     -22.574  48.841 173.8960  0.00  0.00     0.000 OA
ATOM     94   O  IDS F   5     -22.992  49.397 175.8490  0.00  0.00     0.000 OA
ATOM     95   C  IDS F   5     -22.650  49.711 174.7250  0.00  0.00     0.000 C
ENDBRANCH 78 82
ENDBRANCH 58 78
ENDBRANCH 57 61
ENDBRANCH 41 57
ENDBRANCH 40 44
ENDBRANCH 20 40
ENDBRANCH 19 23
ENDBRANCH 1 19
TORSDOF 8
ENDMDL
MODEL 35
REMARK VINA RESULT:      -6.1      3.376      6.241
FFDIST PL LJ 2322 74 36 -1
ROOT
ATOM      1  C1  IDS F   1      -9.771  48.433 173.0570  0.00  0.00     0.000 C
ATOM      2  C2  IDS F   1      -9.473  48.986 171.6530  0.00  0.00     0.000 C
ATOM      3  C3  IDS F   1      -8.260  49.947 171.6220  0.00  0.00     0.000 C
ATOM      4  C4  IDS F   1      -7.101  49.525 172.5540  0.00  0.00     0.000 C
ATOM      5  C5  IDS F   1      -7.652  48.956 173.8660  0.00  0.00     0.000 C
ATOM      6  O5  IDS F   1      -8.574  47.950 173.6040  0.00  0.00     0.000 O
ATOM      7   S  IDS F   1      -9.216  47.939 169.1760  0.00  0.00     0.000 S
ATOM      8   O  IDS F   1      -8.427  49.074 168.8030  0.00  0.00     0.000 OA
ATOM      9   O  IDS F   1      -8.622  46.720 168.7110  0.00  0.00     0.000 OA
ATOM     10   O  IDS F   1     -10.609  48.069 168.8140  0.00  0.00     0.000 OA
ATOM     11   O  IDS F   1      -9.187  47.926 170.7640  0.00  0.00     0.000 O
ATOM     12   O  IDS F   1      -8.696  51.249 172.0050  0.00  0.00     0.000 O
ATOM     14  HD  IDS F   1      -8.250  51.854 172.4360  0.00  0.00     0.000 HD
ATOM     14   O  IDS F   1      -6.361  48.535 171.8830  0.00  0.00     0.000 O
ATOM     16  HD  IDS F   1      -5.915  49.140 172.3140  0.00  0.00     0.000 HD
ATOM     16   O  IDS F   1      -6.838  47.421 175.4930  0.00  0.00     0.000 OA
ATOM     17   O  IDS F   1      -5.596  49.056 175.0910  0.00  0.00     0.000 OA
ATOM     18   C  IDS F   1      -6.633  48.452 174.8670  0.00  0.00     0.000 C
ENDROOT
BRANCH 1 19
ATOM     19  O4  SGN F   2     -10.653  47.369 172.9440  0.00  0.00     0.000 O
BRANCH 19 23
ATOM     20  C1  SGN F   2     -14.179  48.390 174.9230  0.00  0.00     0.000 C
ATOM     21  C2  SGN F   2     -13.189  47.570 175.7350  0.00  0.00     0.000 C
ATOM     22  C3  SGN F   2     -11.767  47.715 175.1730  0.00  0.00     0.000 C
ATOM     23  C4  SGN F   2     -11.852  47.259 173.6810  0.00  0.00     0.000 C
ATOM     24  C5  SGN F   2     -12.836  48.164 173.0180  0.00  0.00     0.000 C
ATOM     25  O5  SGN F   2     -14.099  48.003 173.5790  0.00  0.00     0.000 O
ATOM     26   N  SGN F   2     -13.346  47.910 177.1690  0.00  0.00     0.000 N
ATOM     28  HD  SGN F   2     -12.807  48.086 177.8240  0.00  0.00     0.000 HD
ATOM     28   S  SGN F   2     -14.574  47.148 178.0170  0.00  0.00     0.000 S
ATOM     29   O  SGN F   2     -15.786  47.282 177.2400  0.00  0.00     0.000 OA
ATOM     30   O  SGN F   2     -14.142  45.773 178.1320  0.00  0.00     0.000 OA
ATOM     31   O  SGN F   2     -14.647  47.775 179.2860  0.00  0.00     0.000 OA
ATOM     32   O  SGN F   2     -10.904  46.858 175.9110  0.00  0.00     0.000 O
ATOM     34  HD  SGN F   2     -10.365  47.034 176.5660  0.00  0.00     0.000 HD
ATOM     34   C  SGN F   2     -12.981  47.880 171.5600  0.00  0.00     0.000 C
ATOM     35   O  SGN F   2     -13.304  46.533 171.4830  0.00  0.00     0.000 O
ATOM     36   S  SGN F   2     -13.740  45.762 170.2410  0.00  0.00     0.000 S
ATOM     37   O  SGN F   2     -12.817  44.660 170.1490  0.00  0.00     0.000 OA
ATOM     38   O  SGN F   2     -15.107  45.379 170.5200  0.00  0.00     0.000 OA
ATOM     39   O  SGN F   2     -13.640  46.678 169.1120  0.00  0.00     0.000 OA
BRANCH 20 40
ATOM     40  O4  IDS F   3     -13.938  49.765 175.0500  0.00  0.00     0.000 O
BRANCH 40 44
ATOM     41  C1  IDS F   3     -15.363  52.872 174.3350  0.00  0.00     0.000 C
ATOM     42  C2  IDS F   3     -16.097  51.605 173.9740  0.00  0.00     0.000 C
ATOM     43  C3  IDS F   3     -15.194  50.583 173.1820  0.00  0.00     0.000 C
ATOM     44  C4  IDS F   3     -13.818  50.446 173.8080  0.00  0.00     0.000 C
ATOM     45  C5  IDS F   3     -13.229  51.838 174.0310  0.00  0.00     0.000 C
ATOM     46  O5  IDS F   3     -14.068  52.586 174.8830  0.00  0.00     0.000 O
ATOM     47   O  IDS F   3     -18.368  49.475 174.8600  0.00  0.00     0.000 OA
ATOM     48   O  IDS F   3     -18.156  50.578 176.9420  0.00  0.00     0.000 OA
ATOM     49   O  IDS F   3     -18.772  51.784 174.9500  0.00  0.00     0.000 OA
ATOM     50   O  IDS F   3     -16.593  51.006 175.1760  0.00  0.00     0.000 O
ATOM     51   S  IDS F   3     -18.059  50.696 175.5120  0.00  0.00     0.000 S
ATOM     52   O  IDS F   3     -15.001  51.050 171.8510  0.00  0.00     0.000 O
ATOM     54  HD  IDS F   3     -15.650  51.152 172.4140  0.00  0.00     0.000 HD
ATOM     54   C  IDS F   3     -11.784  51.861 174.5410  0.00  0.00     0.000 C
ATOM     55   O  IDS F   3     -11.534  52.019 175.7330  0.00  0.00     0.000 OA
ATOM     56   O  IDS F   3     -10.829  51.708 173.7690  0.00  0.00     0.000 OA
BRANCH 41 57
ATOM     57  O4  SGN F   4     -15.294  53.688 173.2030  0.00  0.00     0.000 O
BRANCH 57 61
ATOM     58  C1  SGN F   4     -15.499  57.687 172.3590  0.00  0.00     0.000 C
ATOM     59  C2  SGN F   4     -14.290  57.230 173.1900  0.00  0.00     0.000 C
ATOM     60  C3  SGN F   4     -14.093  55.726 173.1040  0.00  0.00     0.000 C
ATOM     61  C4  SGN F   4     -15.410  55.046 173.4730  0.00  0.00     0.000 C
ATOM     62  C5  SGN F   4     -16.560  55.621 172.6230  0.00  0.00     0.000 C
ATOM     63  O5  SGN F   4     -16.648  57.005 172.7770  0.00  0.00     0.000 O
ATOM     64   N  SGN F   4     -13.092  57.945 172.7910  0.00  0.00     0.000 N
ATOM     66  HD  SGN F   4     -13.926  58.015 173.0140  0.00  0.00     0.000 HD
ATOM     66   S  SGN F   4     -12.803  59.385 173.4990  0.00  0.00     0.000 S
ATOM     67   O  SGN F   4     -13.825  60.288 173.0040  0.00  0.00     0.000 OA
ATOM     68   O  SGN F   4     -12.883  59.207 174.9470  0.00  0.00     0.000 OA
ATOM     69   O  SGN F   4     -11.482  59.728 173.0210  0.00  0.00     0.000 OA
ATOM     70   O  SGN F   4     -13.110  55.317 174.0430  0.00  0.00     0.000 O
ATOM     72  HD  SGN F   4     -13.943  55.387 174.2660  0.00  0.00     0.000 HD
ATOM     72   C  SGN F   4     -17.926  55.108 172.9960  0.00  0.00     0.000 C
ATOM     73   O  SGN F   4     -18.151  55.452 174.3440  0.00  0.00     0.000 O
ATOM     74   S  SGN F   4     -19.540  55.748 174.9800  0.00  0.00     0.000 S
ATOM     75   O  SGN F   4     -20.513  54.927 174.3380  0.00  0.00     0.000 OA
ATOM     76   O  SGN F   4     -19.432  55.451 176.4070  0.00  0.00     0.000 OA
ATOM     77   O  SGN F   4     -19.764  57.106 174.6720  0.00  0.00     0.000 OA
BRANCH 58 78
ATOM     78  O4  IDS F   5     -15.260  57.500 170.9850  0.00  0.00     0.000 O
BRANCH 78 82
ATOM     79  C1  IDS F   5     -15.153  57.587 167.5020  0.00  0.00     0.000 C
ATOM     80  C2  IDS F   5     -13.976  58.071 168.3370  0.00  0.00     0.000 C
ATOM     81  C3  IDS F   5     -14.406  59.087 169.3960  0.00  0.00     0.000 C
ATOM     82  C4  IDS F   5     -15.636  58.579 170.1780  0.00  0.00     0.000 C
ATOM     83  C5  IDS F   5     -16.722  58.127 169.1990  0.00  0.00     0.000 C
ATOM     84  O5  IDS F   5     -16.214  57.151 168.3130  0.00  0.00     0.000 O
ATOM     85   O  IDS F   5     -15.530  58.626 166.6330  0.00  0.00     0.000 OA
ATOM     86   O  IDS F   5     -13.435  56.967 169.0080  0.00  0.00     0.000 O
ATOM     87   S  IDS F   5     -12.024  56.843 169.6710  0.00  0.00     0.000 S
ATOM     88   O  IDS F   5     -11.650  58.155 170.1290  0.00  0.00     0.000 OA
ATOM     89   O  IDS F   5     -12.175  55.907 170.7620  0.00  0.00     0.000 OA
ATOM     90   O  IDS F   5     -11.161  56.376 168.6190  0.00  0.00     0.000 OA
ATOM     91   O  IDS F   5     -14.747  60.291 168.7380  0.00  0.00     0.000 O
ATOM     93  HD  IDS F   5     -15.612  60.249 168.7540  0.00  0.00     0.000 HD
ATOM     93   O  IDS F   5     -18.353  56.497 169.7680  0.00  0.00     0.000 OA
ATOM     94   O  IDS F   5     -18.684  58.398 170.5260  0.00  0.00     0.000 OA
ATOM     95   C  IDS F   5     -17.995  57.643 169.8670  0.00  0.00     0.000 C
ENDBRANCH 78 82
ENDBRANCH 58 78
ENDBRANCH 57 61
ENDBRANCH 41 57
ENDBRANCH 40 44
ENDBRANCH 20 40
ENDBRANCH 19 23
ENDBRANCH 1 19
TORSDOF 8
ENDMDL
MODEL 36
REMARK VINA RESULT:      -6.1      2.341      3.269
FFDIST PL LJ 2322 74 36 -1
ROOT
ATOM      1  C1  IDS F   1     -10.354  45.737 171.3180  0.00  0.00     0.000 C
ATOM      2  C2  IDS F   1     -10.127  47.110 170.6640  0.00  0.00     0.000 C
ATOM      3  C3  IDS F   1      -8.652  47.360 170.2680  0.00  0.00     0.000 C
ATOM      4  C4  IDS F   1      -7.928  46.108 169.7210  0.00  0.00     0.000 C
ATOM      5  C5  IDS F   1      -8.359  44.860 170.5000  0.00  0.00     0.000 C
ATOM      6  O5  IDS F   1      -9.745  44.760 170.5180  0.00  0.00     0.000 O
ATOM      7   S  IDS F   1     -11.313  48.536 168.6990  0.00  0.00     0.000 S
ATOM      8   O  IDS F   1     -10.089  49.255 168.5130  0.00  0.00     0.000 OA
ATOM      9   O  IDS F   1     -11.879  48.142 167.4410  0.00  0.00     0.000 OA
ATOM     10   O  IDS F   1     -12.252  49.220 169.5580  0.00  0.00     0.000 OA
ATOM     11   O  IDS F   1     -10.898  47.219 169.4840  0.00  0.00     0.000 O
ATOM     12   O  IDS F   1      -7.942  47.827 171.4130  0.00  0.00     0.000 O
ATOM     14  HD  IDS F   1      -7.113  47.688 171.6180  0.00  0.00     0.000 HD
ATOM     14   O  IDS F   1      -8.289  45.971 168.3690  0.00  0.00     0.000 O
ATOM     16  HD  IDS F   1      -7.459  45.831 168.5740  0.00  0.00     0.000 HD
ATOM     16   O  IDS F   1      -8.463  42.535 170.0010  0.00  0.00     0.000 OA
ATOM     17   O  IDS F   1      -6.595  43.435 169.7280  0.00  0.00     0.000 OA
ATOM     18   C  IDS F   1      -7.769  43.541 170.0460  0.00  0.00     0.000 C
ENDROOT
BRANCH 1 19
ATOM     19  O4  SGN F   2     -11.715  45.475 171.3560  0.00  0.00     0.000 O
BRANCH 19 23
ATOM     20  C1  SGN F   2     -14.663  45.919 174.2720  0.00  0.00     0.000 C
ATOM     21  C2  SGN F   2     -13.232  46.081 174.7600  0.00  0.00     0.000 C
ATOM     22  C3  SGN F   2     -12.296  46.451 173.6010  0.00  0.00     0.000 C
ATOM     23  C4  SGN F   2     -12.451  45.307 172.5480  0.00  0.00     0.000 C
ATOM     24  C5  SGN F   2     -13.890  45.289 172.1530  0.00  0.00     0.000 C
ATOM     25  O5  SGN F   2     -14.690  44.967 173.2450  0.00  0.00     0.000 O
ATOM     26   N  SGN F   2     -13.221  47.014 175.9130  0.00  0.00     0.000 N
ATOM     28  HD  SGN F   2     -12.736  47.689 176.1540  0.00  0.00     0.000 HD
ATOM     28   S  SGN F   2     -13.597  46.388 177.4210  0.00  0.00     0.000 S
ATOM     29   O  SGN F   2     -14.821  45.631 177.2840  0.00  0.00     0.000 OA
ATOM     30   O  SGN F   2     -12.468  45.554 177.7640  0.00  0.00     0.000 OA
ATOM     31   O  SGN F   2     -13.713  47.490 178.3050  0.00  0.00     0.000 OA
ATOM     32   O  SGN F   2     -10.964  46.498 174.0980  0.00  0.00     0.000 O
ATOM     34  HD  SGN F   2     -10.479  47.173 174.3390  0.00  0.00     0.000 HD
ATOM     34   C  SGN F   2     -14.181  44.271 171.1010  0.00  0.00     0.000 C
ATOM     35   O  SGN F   2     -13.718  43.070 171.6190  0.00  0.00     0.000 O
ATOM     36   S  SGN F   2     -13.926  41.677 171.0360  0.00  0.00     0.000 S
ATOM     37   O  SGN F   2     -12.598  41.135 170.8960  0.00  0.00     0.000 OA
ATOM     38   O  SGN F   2     -14.751  40.999 172.0130  0.00  0.00     0.000 OA
ATOM     39   O  SGN F   2     -14.605  41.845 169.7580  0.00  0.00     0.000 OA
BRANCH 20 40
ATOM     40  O4  IDS F   3     -15.197  47.135 173.8240  0.00  0.00     0.000 O
BRANCH 40 44
ATOM     41  C1  IDS F   3     -16.943  50.140 173.4820  0.00  0.00     0.000 C
ATOM     42  C2  IDS F   3     -16.308  49.783 174.8030  0.00  0.00     0.000 C
ATOM     43  C3  IDS F   3     -16.677  48.327 175.2810  0.00  0.00     0.000 C
ATOM     44  C4  IDS F   3     -16.568  47.319 174.1530  0.00  0.00     0.000 C
ATOM     45  C5  IDS F   3     -17.330  47.845 172.9370  0.00  0.00     0.000 C
ATOM     46  O5  IDS F   3     -16.789  49.080 172.5260  0.00  0.00     0.000 O
ATOM     47   O  IDS F   3     -13.736  50.162 176.7310  0.00  0.00     0.000 OA
ATOM     48   O  IDS F   3     -12.771  51.043 174.7580  0.00  0.00     0.000 OA
ATOM     49   O  IDS F   3     -14.764  52.005 175.7080  0.00  0.00     0.000 OA
ATOM     50   O  IDS F   3     -14.888  49.924 174.6790  0.00  0.00     0.000 O
ATOM     51   S  IDS F   3     -13.980  50.841 175.5100  0.00  0.00     0.000 S
ATOM     52   O  IDS F   3     -18.027  48.301 175.7330  0.00  0.00     0.000 O
ATOM     54  HD  IDS F   3     -17.429  48.927 175.7230  0.00  0.00     0.000 HD
ATOM     54   C  IDS F   3     -17.418  46.875 171.7540  0.00  0.00     0.000 C
ATOM     55   O  IDS F   3     -16.656  46.970 170.7950  0.00  0.00     0.000 OA
ATOM     56   O  IDS F   3     -18.253  45.960 171.7340  0.00  0.00     0.000 OA
BRANCH 41 57
ATOM     57  O4  SGN F   4     -18.284  50.466 173.7030  0.00  0.00     0.000 O
BRANCH 57 61
ATOM     58  C1  SGN F   4     -20.934  53.199 172.2000  0.00  0.00     0.000 C
ATOM     59  C2  SGN F   4     -20.826  51.868 171.4390  0.00  0.00     0.000 C
ATOM     60  C3  SGN F   4     -20.145  50.801 172.2790  0.00  0.00     0.000 C
ATOM     61  C4  SGN F   4     -18.813  51.357 172.7770  0.00  0.00     0.000 C
ATOM     62  C5  SGN F   4     -19.031  52.717 173.4690  0.00  0.00     0.000 C
ATOM     63  O5  SGN F   4     -19.661  53.616 172.6100  0.00  0.00     0.000 O
ATOM     64   N  SGN F   4     -22.131  51.431 170.9820  0.00  0.00     0.000 N
ATOM     66  HD  SGN F   4     -21.574  52.092 171.0270  0.00  0.00     0.000 HD
ATOM     66   S  SGN F   4     -22.657  51.999 169.5470  0.00  0.00     0.000 S
ATOM     67   O  SGN F   4     -22.908  53.414 169.7430  0.00  0.00     0.000 OA
ATOM     68   O  SGN F   4     -21.614  51.761 168.5510  0.00  0.00     0.000 OA
ATOM     69   O  SGN F   4     -23.870  51.247 169.3180  0.00  0.00     0.000 OA
ATOM     70   O  SGN F   4     -19.873  49.661 171.4770  0.00  0.00     0.000 O
ATOM     72  HD  SGN F   4     -19.316  50.323 171.5220  0.00  0.00     0.000 HD
ATOM     72   C  SGN F   4     -17.761  53.412 173.8870  0.00  0.00     0.000 C
ATOM     73   O  SGN F   4     -16.994  53.621 172.7230  0.00  0.00     0.000 O
ATOM     74   S  SGN F   4     -16.003  54.798 172.4960  0.00  0.00     0.000 S
ATOM     75   O  SGN F   4     -15.407  55.134 173.7470  0.00  0.00     0.000 OA
ATOM     76   O  SGN F   4     -15.010  54.344 171.5240  0.00  0.00     0.000 OA
ATOM     77   O  SGN F   4     -16.831  55.849 172.0500  0.00  0.00     0.000 OA
BRANCH 58 78
ATOM     78  O4  IDS F   5     -21.813  53.080 173.2920  0.00  0.00     0.000 O
BRANCH 78 82
ATOM     79  C1  IDS F   5     -24.155  53.467 175.8440  0.00  0.00     0.000 C
ATOM     80  C2  IDS F   5     -24.492  52.689 174.5790  0.00  0.00     0.000 C
ATOM     81  C3  IDS F   5     -24.179  53.492 173.3150  0.00  0.00     0.000 C
ATOM     82  C4  IDS F   5     -22.763  54.102 173.3870  0.00  0.00     0.000 C
ATOM     83  C5  IDS F   5     -22.584  54.841 174.7150  0.00  0.00     0.000 C
ATOM     84  O5  IDS F   5     -22.848  53.977 175.8010  0.00  0.00     0.000 O
ATOM     85   O  IDS F   5     -25.123  54.474 176.0080  0.00  0.00     0.000 OA
ATOM     86   O  IDS F   5     -23.698  51.536 174.5530  0.00  0.00     0.000 O
ATOM     87   S  IDS F   5     -23.912  50.242 173.7020  0.00  0.00     0.000 S
ATOM     88   O  IDS F   5     -24.562  50.636 172.4800  0.00  0.00     0.000 OA
ATOM     89   O  IDS F   5     -22.595  49.694 173.4660  0.00  0.00     0.000 OA
ATOM     90   O  IDS F   5     -24.755  49.402 174.5110  0.00  0.00     0.000 OA
ATOM     91   O  IDS F   5     -25.124  54.539 173.2130  0.00  0.00     0.000 O
ATOM     93  HD  IDS F   5     -24.653  55.214 173.4840  0.00  0.00     0.000 HD
ATOM     93   O  IDS F   5     -20.456  55.157 175.7210  0.00  0.00     0.000 OA
ATOM     94   O  IDS F   5     -20.897  56.423 174.1390  0.00  0.00     0.000 OA
ATOM     95   C  IDS F   5     -21.233  55.512 174.8720  0.00  0.00     0.000 C
ENDBRANCH 78 82
ENDBRANCH 58 78
ENDBRANCH 57 61
ENDBRANCH 41 57
ENDBRANCH 40 44
ENDBRANCH 20 40
ENDBRANCH 19 23
ENDBRANCH 1 19
TORSDOF 8
ENDMDL
MODEL 37
REMARK VINA RESULT:      -6.1      1.903      2.816
FFDIST PL LJ 2322 74 36 -1
ROOT
ATOM      1  C1  IDS F   1      -9.100  47.302 172.9020  0.00  0.00     0.000 C
ATOM      2  C2  IDS F   1      -8.244  47.796 171.7250  0.00  0.00     0.000 C
ATOM      3  C3  IDS F   1      -6.791  47.261 171.7610  0.00  0.00     0.000 C
ATOM      4  C4  IDS F   1      -6.674  45.799 172.2500  0.00  0.00     0.000 C
ATOM      5  C5  IDS F   1      -7.665  45.536 173.3890  0.00  0.00     0.000 C
ATOM      6  O5  IDS F   1      -8.947  45.912 173.0070  0.00  0.00     0.000 O
ATOM      7   S  IDS F   1      -8.544  47.950 169.0440  0.00  0.00     0.000 S
ATOM      8   O  IDS F   1      -7.118  47.959 168.9080  0.00  0.00     0.000 OA
ATOM      9   O  IDS F   1      -9.149  47.058 168.0980  0.00  0.00     0.000 OA
ATOM     10   O  IDS F   1      -9.126  49.272 169.0350  0.00  0.00     0.000 OA
ATOM     11   O  IDS F   1      -8.811  47.376 170.5010  0.00  0.00     0.000 O
ATOM     12   O  IDS F   1      -6.019  48.089 172.6270  0.00  0.00     0.000 O
ATOM     14  HD  IDS F   1      -5.354  47.858 173.1310  0.00  0.00     0.000 HD
ATOM     14   O  IDS F   1      -6.975  44.965 171.1580  0.00  0.00     0.000 O
ATOM     16  HD  IDS F   1      -6.310  44.734 171.6620  0.00  0.00     0.000 HD
ATOM     16   O  IDS F   1      -8.770  43.601 174.2270  0.00  0.00     0.000 OA
ATOM     17   O  IDS F   1      -6.683  43.482 174.1350  0.00  0.00     0.000 OA
ATOM     18   C  IDS F   1      -7.702  44.126 173.9430  0.00  0.00     0.000 C
ENDROOT
BRANCH 1 19
ATOM     19  O4  SGN F   2     -10.435  47.568 172.6310  0.00  0.00     0.000 O
BRANCH 19 23
ATOM     20  C1  SGN F   2     -14.241  47.261 174.3070  0.00  0.00     0.000 C
ATOM     21  C2  SGN F   2     -13.111  47.509 175.2940  0.00  0.00     0.000 C
ATOM     22  C3  SGN F   2     -11.901  48.143 174.5930  0.00  0.00     0.000 C
ATOM     23  C4  SGN F   2     -11.503  47.150 173.4540  0.00  0.00     0.000 C
ATOM     24  C5  SGN F   2     -12.695  47.029 172.5630  0.00  0.00     0.000 C
ATOM     25  O5  SGN F   2     -13.763  46.468 173.2550  0.00  0.00     0.000 O
ATOM     26   N  SGN F   2     -13.645  48.264 176.4530  0.00  0.00     0.000 N
ATOM     28  HD  SGN F   2     -13.384  48.947 176.9160  0.00  0.00     0.000 HD
ATOM     28   S  SGN F   2     -14.418  47.391 177.6560  0.00  0.00     0.000 S
ATOM     29   O  SGN F   2     -15.386  46.530 177.0140  0.00  0.00     0.000 OA
ATOM     30   O  SGN F   2     -13.363  46.647 178.3070  0.00  0.00     0.000 OA
ATOM     31   O  SGN F   2     -15.003  48.336 178.5370  0.00  0.00     0.000 OA
ATOM     32   O  SGN F   2     -10.848  48.266 175.5410  0.00  0.00     0.000 O
ATOM     34  HD  SGN F   2     -10.587  48.950 176.0050  0.00  0.00     0.000 HD
ATOM     34   C  SGN F   2     -12.442  46.146 171.3870  0.00  0.00     0.000 C
ATOM     35   O  SGN F   2     -12.007  44.943 171.9230  0.00  0.00     0.000 O
ATOM     36   S  SGN F   2     -11.781  43.632 171.1770  0.00  0.00     0.000 S
ATOM     37   O  SGN F   2     -10.420  43.267 171.4780  0.00  0.00     0.000 OA
ATOM     38   O  SGN F   2     -12.778  42.735 171.7190  0.00  0.00     0.000 OA
ATOM     39   O  SGN F   2     -11.992  43.905 169.7610  0.00  0.00     0.000 OA
BRANCH 20 40
ATOM     40  O4  IDS F   3     -14.768  48.462 173.8110  0.00  0.00     0.000 O
BRANCH 40 44
ATOM     41  C1  IDS F   3     -16.454  51.513 173.6200  0.00  0.00     0.000 C
ATOM     42  C2  IDS F   3     -15.886  51.047 174.9370  0.00  0.00     0.000 C
ATOM     43  C3  IDS F   3     -16.297  49.565 175.2870  0.00  0.00     0.000 C
ATOM     44  C4  IDS F   3     -16.150  48.644 174.0910  0.00  0.00     0.000 C
ATOM     45  C5  IDS F   3     -16.848  49.273 172.8850  0.00  0.00     0.000 C
ATOM     46  O5  IDS F   3     -16.271  50.526 172.5940  0.00  0.00     0.000 O
ATOM     47   O  IDS F   3     -13.401  51.235 177.0020  0.00  0.00     0.000 OA
ATOM     48   O  IDS F   3     -12.334  52.246 175.1480  0.00  0.00     0.000 OA
ATOM     49   O  IDS F   3     -14.356  53.168 176.0770  0.00  0.00     0.000 OA
ATOM     50   O  IDS F   3     -14.461  51.172 174.8880  0.00  0.00     0.000 O
ATOM     51   S  IDS F   3     -13.579  52.009 175.8270  0.00  0.00     0.000 S
ATOM     52   O  IDS F   3     -17.667  49.529 175.6740  0.00  0.00     0.000 O
ATOM     54  HD  IDS F   3     -17.060  50.144 175.7390  0.00  0.00     0.000 HD
ATOM     54   C  IDS F   3     -16.895  48.396 171.6290  0.00  0.00     0.000 C
ATOM     55   O  IDS F   3     -16.087  48.551 170.7160  0.00  0.00     0.000 OA
ATOM     56   O  IDS F   3     -17.740  47.501 171.5030  0.00  0.00     0.000 OA
BRANCH 41 57
ATOM     57  O4  SGN F   4     -17.800  51.845 173.8050  0.00  0.00     0.000 O
BRANCH 57 61
ATOM     58  C1  SGN F   4     -20.359  54.542 172.0960  0.00  0.00     0.000 C
ATOM     59  C2  SGN F   4     -20.403  53.113 171.5320  0.00  0.00     0.000 C
ATOM     60  C3  SGN F   4     -19.736  52.124 172.4720  0.00  0.00     0.000 C
ATOM     61  C4  SGN F   4     -18.334  52.636 172.7950  0.00  0.00     0.000 C
ATOM     62  C5  SGN F   4     -18.403  54.093 173.2940  0.00  0.00     0.000 C
ATOM     63  O5  SGN F   4     -19.033  54.910 172.3550  0.00  0.00     0.000 O
ATOM     64   N  SGN F   4     -21.766  52.722 171.2300  0.00  0.00     0.000 N
ATOM     66  HD  SGN F   4     -21.163  53.336 171.1420  0.00  0.00     0.000 HD
ATOM     66   S  SGN F   4     -22.360  53.122 169.7650  0.00  0.00     0.000 S
ATOM     67   O  SGN F   4     -22.496  54.567 169.7680  0.00  0.00     0.000 OA
ATOM     68   O  SGN F   4     -21.415  52.664 168.7480  0.00  0.00     0.000 OA
ATOM     69   O  SGN F   4     -23.636  52.446 169.7290  0.00  0.00     0.000 OA
ATOM     70   O  SGN F   4     -19.607  50.864 171.8290  0.00  0.00     0.000 O
ATOM     72  HD  SGN F   4     -19.003  51.479 171.7410  0.00  0.00     0.000 HD
ATOM     72   C  SGN F   4     -17.060  54.737 173.5210  0.00  0.00     0.000 C
ATOM     73   O  SGN F   4     -16.372  54.717 172.2920  0.00  0.00     0.000 O
ATOM     74   S  SGN F   4     -15.321  55.768 171.8310  0.00  0.00     0.000 S
ATOM     75   O  SGN F   4     -14.610  56.227 172.9780  0.00  0.00     0.000 OA
ATOM     76   O  SGN F   4     -14.439  55.103 170.8730  0.00  0.00     0.000 OA
ATOM     77   O  SGN F   4     -16.105  56.809 171.2910  0.00  0.00     0.000 OA
BRANCH 58 78
ATOM     78  O4  IDS F   5     -21.159  54.648 173.2490  0.00  0.00     0.000 O
BRANCH 78 82
ATOM     79  C1  IDS F   5     -23.181  55.637 175.9100  0.00  0.00     0.000 C
ATOM     80  C2  IDS F   5     -23.712  54.720 174.8180  0.00  0.00     0.000 C
ATOM     81  C3  IDS F   5     -23.467  55.293 173.4210  0.00  0.00     0.000 C
ATOM     82  C4  IDS F   5     -22.004  55.763 173.2690  0.00  0.00     0.000 C
ATOM     83  C5  IDS F   5     -21.626  56.667 174.4430  0.00  0.00     0.000 C
ATOM     84  O5  IDS F   5     -21.846  56.003 175.6700  0.00  0.00     0.000 O
ATOM     85   O  IDS F   5     -24.037  56.749 176.0020  0.00  0.00     0.000 OA
ATOM     86   O  IDS F   5     -23.026  53.502 174.9000  0.00  0.00     0.000 O
ATOM     87   S  IDS F   5     -23.436  52.125 174.2840  0.00  0.00     0.000 S
ATOM     88   O  IDS F   5     -24.175  52.397 173.0800  0.00  0.00     0.000 OA
ATOM     89   O  IDS F   5     -22.202  51.420 174.0190  0.00  0.00     0.000 OA
ATOM     90   O  IDS F   5     -24.258  51.501 175.2870  0.00  0.00     0.000 OA
ATOM     91   O  IDS F   5     -24.325  56.403 173.2430  0.00  0.00     0.000 O
ATOM     93  HD  IDS F   5     -23.773  57.059 173.3620  0.00  0.00     0.000 HD
ATOM     93   O  IDS F   5     -19.385  56.915 175.1900  0.00  0.00     0.000 OA
ATOM     94   O  IDS F   5     -19.880  57.973 173.4780  0.00  0.00     0.000 OA
ATOM     95   C  IDS F   5     -20.214  57.217 174.3710  0.00  0.00     0.000 C
ENDBRANCH 78 82
ENDBRANCH 58 78
ENDBRANCH 57 61
ENDBRANCH 41 57
ENDBRANCH 40 44
ENDBRANCH 20 40
ENDBRANCH 19 23
ENDBRANCH 1 19
TORSDOF 8
ENDMDL
MODEL 38
REMARK VINA RESULT:      -6.0      2.987     13.238
FFDIST PL LJ 2322 74 36 -1
ROOT
ATOM      1  C1  IDS F   1     -22.028  49.100 174.4630  0.00  0.00     0.000 C
ATOM      2  C2  IDS F   1     -22.963  48.455 173.4270  0.00  0.00     0.000 C
ATOM      3  C3  IDS F   1     -24.447  48.855 173.6140  0.00  0.00     0.000 C
ATOM      4  C4  IDS F   1     -24.651  50.328 174.0360  0.00  0.00     0.000 C
ATOM      5  C5  IDS F   1     -23.564  50.753 175.0300  0.00  0.00     0.000 C
ATOM      6  O5  IDS F   1     -22.305  50.473 174.5150  0.00  0.00     0.000 O
ATOM      7   S  IDS F   1     -22.965  48.160 170.7420  0.00  0.00     0.000 S
ATOM      8   O  IDS F   1     -24.388  48.011 170.7820  0.00  0.00     0.000 OA
ATOM      9   O  IDS F   1     -22.566  49.041 169.6830  0.00  0.00     0.000 OA
ATOM     10   O  IDS F   1     -22.259  46.899 170.7300  0.00  0.00     0.000 OA
ATOM     11   O  IDS F   1     -22.587  48.848 172.1230  0.00  0.00     0.000 O
ATOM     12   O  IDS F   1     -25.027  48.016 174.6090  0.00  0.00     0.000 O
ATOM     14  HD  IDS F   1     -25.648  48.217 175.1780  0.00  0.00     0.000 HD
ATOM     14   O  IDS F   1     -24.563  51.115 172.8740  0.00  0.00     0.000 O
ATOM     16  HD  IDS F   1     -25.185  51.316 173.4430  0.00  0.00     0.000 HD
ATOM     16   O  IDS F   1     -22.567  52.831 175.6250  0.00  0.00     0.000 OA
ATOM     17   O  IDS F   1     -24.651  52.751 175.7830  0.00  0.00     0.000 OA
ATOM     18   C  IDS F   1     -23.603  52.193 175.5020  0.00  0.00     0.000 C
ENDROOT
BRANCH 1 19
ATOM     19  O4  SGN F   2     -20.715  48.941 174.0450  0.00  0.00     0.000 O
BRANCH 19 23
ATOM     20  C1  SGN F   2     -16.901  50.587 174.4130  0.00  0.00     0.000 C
ATOM     21  C2  SGN F   2     -17.656  50.391 175.7180  0.00  0.00     0.000 C
ATOM     22  C3  SGN F   2     -18.746  49.321 175.5650  0.00  0.00     0.000 C
ATOM     23  C4  SGN F   2     -19.665  49.815 174.4020  0.00  0.00     0.000 C
ATOM     24  C5  SGN F   2     -18.793  49.935 173.1960  0.00  0.00     0.000 C
ATOM     25  O5  SGN F   2     -17.815  50.904 173.3990  0.00  0.00     0.000 O
ATOM     26   N  SGN F   2     -16.678  50.155 176.8070  0.00  0.00     0.000 N
ATOM     28  HD  SGN F   2     -16.613  49.598 177.4670  0.00  0.00     0.000 HD
ATOM     28   S  SGN F   2     -15.952  51.496 177.5020  0.00  0.00     0.000 S
ATOM     29   O  SGN F   2     -15.454  52.326 176.4280  0.00  0.00     0.000 OA
ATOM     30   O  SGN F   2     -17.009  52.139 178.2500  0.00  0.00     0.000 OA
ATOM     31   O  SGN F   2     -14.932  51.012 178.3590  0.00  0.00     0.000 OA
ATOM     32   O  SGN F   2     -19.475  49.248 176.7840  0.00  0.00     0.000 O
ATOM     34  HD  SGN F   2     -19.410  48.691 177.4440  0.00  0.00     0.000 HD
ATOM     34   C  SGN F   2     -19.552  50.349 171.9810  0.00  0.00     0.000 C
ATOM     35   O  SGN F   2     -20.196  51.525 172.3380  0.00  0.00     0.000 O
ATOM     36   S  SGN F   2     -20.962  52.470 171.4180  0.00  0.00     0.000 S
ATOM     37   O  SGN F   2     -22.268  52.588 172.0160  0.00  0.00     0.000 OA
ATOM     38   O  SGN F   2     -20.184  53.689 171.4270  0.00  0.00     0.000 OA
ATOM     39   O  SGN F   2     -21.000  51.846 170.1010  0.00  0.00     0.000 OA
BRANCH 20 40
ATOM     40  O4  IDS F   3     -16.164  49.446 174.0660  0.00  0.00     0.000 O
BRANCH 40 44
ATOM     41  C1  IDS F   3     -13.664  47.013 173.9020  0.00  0.00     0.000 C
ATOM     42  C2  IDS F   3     -13.910  47.756 175.1910  0.00  0.00     0.000 C
ATOM     43  C3  IDS F   3     -13.960  49.319 174.9930  0.00  0.00     0.000 C
ATOM     44  C4  IDS F   3     -14.794  49.707 173.7870  0.00  0.00     0.000 C
ATOM     45  C5  IDS F   3     -14.341  48.886 172.5800  0.00  0.00     0.000 C
ATOM     46  O5  IDS F   3     -14.499  47.511 172.8460  0.00  0.00     0.000 O
ATOM     47   O  IDS F   3     -15.375  47.706 178.0770  0.00  0.00     0.000 OA
ATOM     48   O  IDS F   3     -16.548  45.893 177.1080  0.00  0.00     0.000 OA
ATOM     49   O  IDS F   3     -14.148  45.860 177.3100  0.00  0.00     0.000 OA
ATOM     50   O  IDS F   3     -15.136  47.285 175.7620  0.00  0.00     0.000 O
ATOM     51   S  IDS F   3     -15.319  46.640 177.1430  0.00  0.00     0.000 S
ATOM     52   O  IDS F   3     -12.644  49.813 174.7650  0.00  0.00     0.000 O
ATOM     54  HD  IDS F   3     -12.940  49.132 175.2110  0.00  0.00     0.000 HD
ATOM     54   C  IDS F   3     -15.008  49.259 171.2520  0.00  0.00     0.000 C
ATOM     55   O  IDS F   3     -15.954  48.611 170.8120  0.00  0.00     0.000 OA
ATOM     56   O  IDS F   3     -14.619  50.230 170.5890  0.00  0.00     0.000 OA
BRANCH 41 57
ATOM     57  O4  SGN F   4     -12.304  47.097 173.5890  0.00  0.00     0.000 O
BRANCH 57 61
ATOM     58  C1  SGN F   4      -9.997  45.647 170.5350  0.00  0.00     0.000 C
ATOM     59  C2  SGN F   4     -10.417  47.121 170.4280  0.00  0.00     0.000 C
ATOM     60  C3  SGN F   4     -10.907  47.658 171.7620  0.00  0.00     0.000 C
ATOM     61  C4  SGN F   4     -11.997  46.725 172.2860  0.00  0.00     0.000 C
ATOM     62  C5  SGN F   4     -11.490  45.270 172.2950  0.00  0.00     0.000 C
ATOM     63  O5  SGN F   4     -11.065  44.883 171.0230  0.00  0.00     0.000 O
ATOM     64   N  SGN F   4      -9.333  47.926 169.8990  0.00  0.00     0.000 N
ATOM     66  HD  SGN F   4      -9.803  47.206 169.8000  0.00  0.00     0.000 HD
ATOM     66   S  SGN F   4      -9.198  48.037 168.2780  0.00  0.00     0.000 S
ATOM     67   O  SGN F   4      -8.796  46.720 167.8180  0.00  0.00     0.000 OA
ATOM     68   O  SGN F   4     -10.496  48.433 167.7360  0.00  0.00     0.000 OA
ATOM     69   O  SGN F   4      -8.160  49.027 168.0990  0.00  0.00     0.000 OA
ATOM     70   O  SGN F   4     -11.481  48.944 171.5790  0.00  0.00     0.000 O
ATOM     72  HD  SGN F   4     -11.951  48.223 171.4800  0.00  0.00     0.000 HD
ATOM     72   C  SGN F   4     -12.531  44.250 172.6760  0.00  0.00     0.000 C
ATOM     73   O  SGN F   4     -13.581  44.352 171.7410  0.00  0.00     0.000 O
ATOM     74   S  SGN F   4     -14.505  43.183 171.2920  0.00  0.00     0.000 S
ATOM     75   O  SGN F   4     -14.692  42.306 172.4000  0.00  0.00     0.000 OA
ATOM     76   O  SGN F   4     -15.765  43.777 170.8480  0.00  0.00     0.000 OA
ATOM     77   O  SGN F   4     -13.763  42.542 170.2790  0.00  0.00     0.000 OA
BRANCH 58 78
ATOM     78  O4  IDS F   5      -8.855  45.511 171.3450  0.00  0.00     0.000 O
BRANCH 78 82
ATOM     79  C1  IDS F   5      -5.935  44.538 172.9830  0.00  0.00     0.000 C
ATOM     80  C2  IDS F   5      -5.935  45.702 172.0010  0.00  0.00     0.000 C
ATOM     81  C3  IDS F   5      -6.561  45.316 170.6590  0.00  0.00     0.000 C
ATOM     82  C4  IDS F   5      -7.910  44.596 170.8670  0.00  0.00     0.000 C
ATOM     83  C5  IDS F   5      -7.741  43.463 171.8810  0.00  0.00     0.000 C
ATOM     84  O5  IDS F   5      -7.209  43.958 173.0930  0.00  0.00     0.000 O
ATOM     85   O  IDS F   5      -4.957  43.618 172.5690  0.00  0.00     0.000 OA
ATOM     86   O  IDS F   5      -6.712  46.732 172.5460  0.00  0.00     0.000 O
ATOM     87   S  IDS F   5      -6.726  48.242 172.1420  0.00  0.00     0.000 S
ATOM     88   O  IDS F   5      -6.410  48.312 170.7390  0.00  0.00     0.000 OA
ATOM     89   O  IDS F   5      -8.060  48.721 172.4240  0.00  0.00     0.000 OA
ATOM     90   O  IDS F   5      -5.705  48.851 172.9520  0.00  0.00     0.000 OA
ATOM     91   O  IDS F   5      -5.672  44.440 169.9950  0.00  0.00     0.000 O
ATOM     93  HD  IDS F   5      -6.056  43.677 170.1350  0.00  0.00     0.000 HD
ATOM     93   O  IDS F   5      -9.540  42.664 173.2100  0.00  0.00     0.000 OA
ATOM     94   O  IDS F   5      -9.517  42.005 171.2450  0.00  0.00     0.000 OA
ATOM     95   C  IDS F   5      -9.006  42.663 172.1310  0.00  0.00     0.000 C
ENDBRANCH 78 82
ENDBRANCH 58 78
ENDBRANCH 57 61
ENDBRANCH 41 57
ENDBRANCH 40 44
ENDBRANCH 20 40
ENDBRANCH 19 23
ENDBRANCH 1 19
TORSDOF 8
ENDMDL
MODEL 39
REMARK VINA RESULT:      -6.0      4.898     10.173
FFDIST PL LJ 2322 74 36 -1
ROOT
ATOM      1  C1  IDS F   1     -10.567  55.106 172.5040  0.00  0.00     0.000 C
ATOM      2  C2  IDS F   1     -11.516  56.128 171.8560  0.00  0.00     0.000 C
ATOM      3  C3  IDS F   1     -10.776  57.333 171.2280  0.00  0.00     0.000 C
ATOM      4  C4  IDS F   1      -9.444  56.961 170.5360  0.00  0.00     0.000 C
ATOM      5  C5  IDS F   1      -8.707  55.887 171.3430  0.00  0.00     0.000 C
ATOM      6  O5  IDS F   1      -9.547  54.808 171.5880  0.00  0.00     0.000 O
ATOM      7   S  IDS F   1     -13.610  56.014 170.1530  0.00  0.00     0.000 S
ATOM      8   O  IDS F   1     -13.355  57.374 169.7850  0.00  0.00     0.000 OA
ATOM      9   O  IDS F   1     -13.858  55.202 168.9970  0.00  0.00     0.000 OA
ATOM     10   O  IDS F   1     -14.624  55.879 171.1730  0.00  0.00     0.000 OA
ATOM     11   O  IDS F   1     -12.260  55.513 170.8240  0.00  0.00     0.000 O
ATOM     12   O  IDS F   1     -10.502  58.287 172.2510  0.00  0.00     0.000 O
ATOM     14  HD  IDS F   1      -9.823  58.822 172.3120  0.00  0.00     0.000 HD
ATOM     14   O  IDS F   1      -9.758  56.462 169.2600  0.00  0.00     0.000 O
ATOM     16  HD  IDS F   1      -9.079  56.997 169.3200  0.00  0.00     0.000 HD
ATOM     16   O  IDS F   1      -7.123  54.191 170.8090  0.00  0.00     0.000 OA
ATOM     17   O  IDS F   1      -6.588  56.135 170.2530  0.00  0.00     0.000 OA
ATOM     18   C  IDS F   1      -7.400  55.382 170.7640  0.00  0.00     0.000 C
ENDROOT
BRANCH 1 19
ATOM     19  O4  SGN F   2     -11.269  53.938 172.7600  0.00  0.00     0.000 O
BRANCH 19 23
ATOM     20  C1  SGN F   2     -13.563  52.019 175.6660  0.00  0.00     0.000 C
ATOM     21  C2  SGN F   2     -13.980  53.444 175.3420  0.00  0.00     0.000 C
ATOM     22  C3  SGN F   2     -13.485  53.856 173.9480  0.00  0.00     0.000 C
ATOM     23  C4  SGN F   2     -11.934  53.670 173.9760  0.00  0.00     0.000 C
ATOM     24  C5  SGN F   2     -11.687  52.230 174.2800  0.00  0.00     0.000 C
ATOM     25  O5  SGN F   2     -12.172  51.910 175.5450  0.00  0.00     0.000 O
ATOM     26   N  SGN F   2     -15.439  53.581 175.5670  0.00  0.00     0.000 N
ATOM     28  HD  SGN F   2     -16.099  53.935 175.1340  0.00  0.00     0.000 HD
ATOM     28   S  SGN F   2     -15.958  53.854 177.1370  0.00  0.00     0.000 S
ATOM     29   O  SGN F   2     -15.317  52.873 177.9830  0.00  0.00     0.000 OA
ATOM     30   O  SGN F   2     -15.532  55.202 177.4360  0.00  0.00     0.000 OA
ATOM     31   O  SGN F   2     -17.372  53.749 177.1250  0.00  0.00     0.000 OA
ATOM     32   O  SGN F   2     -13.823  55.222 173.7380  0.00  0.00     0.000 O
ATOM     34  HD  SGN F   2     -14.483  55.577 173.3040  0.00  0.00     0.000 HD
ATOM     34   C  SGN F   2     -10.235  51.888 174.2850  0.00  0.00     0.000 C
ATOM     35   O  SGN F   2      -9.657  52.768 175.1880  0.00  0.00     0.000 O
ATOM     36   S  SGN F   2      -8.225  52.740 175.7120  0.00  0.00     0.000 S
ATOM     37   O  SGN F   2      -7.700  54.050 175.4210  0.00  0.00     0.000 OA
ATOM     38   O  SGN F   2      -8.366  52.448 177.1220  0.00  0.00     0.000 OA
ATOM     39   O  SGN F   2      -7.528  51.680 174.9940  0.00  0.00     0.000 OA
BRANCH 20 40
ATOM     40  O4  IDS F   3     -14.199  51.091 174.8290  0.00  0.00     0.000 O
BRANCH 40 44
ATOM     41  C1  IDS F   3     -15.533  47.961 174.0420  0.00  0.00     0.000 C
ATOM     42  C2  IDS F   3     -15.984  49.185 173.2840  0.00  0.00     0.000 C
ATOM     43  C3  IDS F   3     -16.404  50.370 174.2360  0.00  0.00     0.000 C
ATOM     44  C4  IDS F   3     -15.408  50.567 175.3630  0.00  0.00     0.000 C
ATOM     45  C5  IDS F   3     -15.141  49.221 176.0350  0.00  0.00     0.000 C
ATOM     46  O5  IDS F   3     -14.622  48.307 175.0960  0.00  0.00     0.000 O
ATOM     47   O  IDS F   3     -15.604  50.976 170.6150  0.00  0.00     0.000 OA
ATOM     48   O  IDS F   3     -13.642  49.674 170.3890  0.00  0.00     0.000 OA
ATOM     49   O  IDS F   3     -15.818  48.644 170.4880  0.00  0.00     0.000 OA
ATOM     50   O  IDS F   3     -14.925  49.596 172.4120  0.00  0.00     0.000 O
ATOM     51   S  IDS F   3     -14.992  49.726 170.8830  0.00  0.00     0.000 S
ATOM     52   O  IDS F   3     -17.661  50.075 174.8380  0.00  0.00     0.000 O
ATOM     54  HD  IDS F   3     -17.313  49.849 174.0780  0.00  0.00     0.000 HD
ATOM     54   C  IDS F   3     -14.248  49.280 177.2800  0.00  0.00     0.000 C
ATOM     55   O  IDS F   3     -13.050  49.015 177.2160  0.00  0.00     0.000 OA
ATOM     56   O  IDS F   3     -14.705  49.608 178.3830  0.00  0.00     0.000 OA
BRANCH 41 57
ATOM     57  O4  SGN F   4     -16.662  47.287 174.5150  0.00  0.00     0.000 O
BRANCH 57 61
ATOM     58  C1  SGN F   4     -17.713  43.351 174.9130  0.00  0.00     0.000 C
ATOM     59  C2  SGN F   4     -17.117  44.025 176.1600  0.00  0.00     0.000 C
ATOM     60  C3  SGN F   4     -17.141  45.538 176.0380  0.00  0.00     0.000 C
ATOM     61  C4  SGN F   4     -16.466  45.927 174.7240  0.00  0.00     0.000 C
ATOM     62  C5  SGN F   4     -17.100  45.151 173.5530  0.00  0.00     0.000 C
ATOM     63  O5  SGN F   4     -17.024  43.775 173.7700  0.00  0.00     0.000 O
ATOM     64   N  SGN F   4     -17.800  43.579 177.3600  0.00  0.00     0.000 N
ATOM     66  HD  SGN F   4     -17.416  43.335 176.6220  0.00  0.00     0.000 HD
ATOM     66   S  SGN F   4     -17.264  42.211 178.0670  0.00  0.00     0.000 S
ATOM     67   O  SGN F   4     -17.599  41.131 177.1580  0.00  0.00     0.000 OA
ATOM     68   O  SGN F   4     -15.822  42.333 178.2650  0.00  0.00     0.000 OA
ATOM     69   O  SGN F   4     -18.023  42.155 179.2960  0.00  0.00     0.000 OA
ATOM     70   O  SGN F   4     -16.397  46.116 177.1010  0.00  0.00     0.000 O
ATOM     72  HD  SGN F   4     -16.013  45.872 176.3640  0.00  0.00     0.000 HD
ATOM     72   C  SGN F   4     -16.421  45.366 172.2250  0.00  0.00     0.000 C
ATOM     73   O  SGN F   4     -15.083  44.950 172.3650  0.00  0.00     0.000 O
ATOM     74   S  SGN F   4     -14.198  44.362 171.2280  0.00  0.00     0.000 S
ATOM     75   O  SGN F   4     -14.571  44.983 170.0000  0.00  0.00     0.000 OA
ATOM     76   O  SGN F   4     -12.806  44.639 171.5780  0.00  0.00     0.000 OA
ATOM     77   O  SGN F   4     -14.544  42.995 171.2100  0.00  0.00     0.000 OA
BRANCH 58 78
ATOM     78  O4  IDS F   5     -19.091  43.617 174.8120  0.00  0.00     0.000 O
BRANCH 78 82
ATOM     79  C1  IDS F   5     -22.515  43.630 174.1610  0.00  0.00     0.000 C
ATOM     80  C2  IDS F   5     -21.985  43.454 175.5770  0.00  0.00     0.000 C
ATOM     81  C3  IDS F   5     -20.940  42.339 175.6610  0.00  0.00     0.000 C
ATOM     82  C4  IDS F   5     -19.881  42.494 174.5490  0.00  0.00     0.000 C
ATOM     83  C5  IDS F   5     -20.574  42.665 173.1950  0.00  0.00     0.000 C
ATOM     84  O5  IDS F   5     -21.469  43.757 173.2320  0.00  0.00     0.000 O
ATOM     85   O  IDS F   5     -23.362  42.545 173.8740  0.00  0.00     0.000 OA
ATOM     86   O  IDS F   5     -21.360  44.647 175.9590  0.00  0.00     0.000 O
ATOM     87   S  IDS F   5     -20.999  45.123 177.4040  0.00  0.00     0.000 S
ATOM     88   O  IDS F   5     -20.731  43.945 178.1880  0.00  0.00     0.000 OA
ATOM     89   O  IDS F   5     -19.832  45.965 177.2700  0.00  0.00     0.000 OA
ATOM     90   O  IDS F   5     -22.170  45.819 177.8670  0.00  0.00     0.000 OA
ATOM     91   O  IDS F   5     -21.602  41.101 175.4960  0.00  0.00     0.000 O
ATOM     93  HD  IDS F   5     -21.402  40.916 174.6740  0.00  0.00     0.000 HD
ATOM     93   O  IDS F   5     -19.552  43.801 171.3760  0.00  0.00     0.000 OA
ATOM     94   O  IDS F   5     -18.890  41.865 171.7100  0.00  0.00     0.000 OA
ATOM     95   C  IDS F   5     -19.619  42.787 172.0230  0.00  0.00     0.000 C
ENDBRANCH 78 82
ENDBRANCH 58 78
ENDBRANCH 57 61
ENDBRANCH 41 57
ENDBRANCH 40 44
ENDBRANCH 20 40
ENDBRANCH 19 23
ENDBRANCH 1 19
TORSDOF 8
ENDMDL
MODEL 40
REMARK VINA RESULT:      -6.0      3.882     11.773
FFDIST PL LJ 2322 74 36 -1
ROOT
ATOM      1  C1  IDS F   1     -20.043  46.611 175.7960  0.00  0.00     0.000 C
ATOM      2  C2  IDS F   1     -19.300  45.446 175.1220  0.00  0.00     0.000 C
ATOM      3  C3  IDS F   1     -19.101  44.228 176.0560  0.00  0.00     0.000 C
ATOM      4  C4  IDS F   1     -20.303  43.949 176.9880  0.00  0.00     0.000 C
ATOM      5  C5  IDS F   1     -20.907  45.266 177.4880  0.00  0.00     0.000 C
ATOM      6  O5  IDS F   1     -21.194  46.102 176.4160  0.00  0.00     0.000 O
ATOM      7   S  IDS F   1     -19.504  44.119 172.7770  0.00  0.00     0.000 S
ATOM      8   O  IDS F   1     -18.850  42.998 173.3810  0.00  0.00     0.000 OA
ATOM      9   O  IDS F   1     -20.643  43.704 172.0110  0.00  0.00     0.000 OA
ATOM     10   O  IDS F   1     -18.605  44.978 172.0420  0.00  0.00     0.000 OA
ATOM     11   O  IDS F   1     -20.026  44.993 173.9970  0.00  0.00     0.000 O
ATOM     12   O  IDS F   1     -17.948  44.452 176.8630  0.00  0.00     0.000 O
ATOM     14  HD  IDS F   1     -17.808  44.188 177.6760  0.00  0.00     0.000 HD
ATOM     14   O  IDS F   1     -21.262  43.244 176.2390  0.00  0.00     0.000 O
ATOM     16  HD  IDS F   1     -21.122  42.980 177.0520  0.00  0.00     0.000 HD
ATOM     16   O  IDS F   1     -23.064  45.934 178.2420  0.00  0.00     0.000 OA
ATOM     17   O  IDS F   1     -22.214  44.312 179.2540  0.00  0.00     0.000 OA
ATOM     18   C  IDS F   1     -22.129  45.157 178.3780  0.00  0.00     0.000 C
ENDROOT
BRANCH 1 19
ATOM     19  O4  SGN F   2     -20.444  47.514 174.8230  0.00  0.00     0.000 O
BRANCH 19 23
ATOM     20  C1  SGN F   2     -17.736  50.609 174.1300  0.00  0.00     0.000 C
ATOM     21  C2  SGN F   2     -18.483  50.679 175.4520  0.00  0.00     0.000 C
ATOM     22  C3  SGN F   2     -19.001  49.294 175.8630  0.00  0.00     0.000 C
ATOM     23  C4  SGN F   2     -19.903  48.810 174.6820  0.00  0.00     0.000 C
ATOM     24  C5  SGN F   2     -19.030  48.771 173.4720  0.00  0.00     0.000 C
ATOM     25  O5  SGN F   2     -18.577  50.049 173.1590  0.00  0.00     0.000 O
ATOM     26   N  SGN F   2     -17.628  51.363 176.4510  0.00  0.00     0.000 N
ATOM     28  HD  SGN F   2     -17.412  51.222 177.2780  0.00  0.00     0.000 HD
ATOM     28   S  SGN F   2     -17.614  53.039 176.4430  0.00  0.00     0.000 S
ATOM     29   O  SGN F   2     -17.389  53.465 175.0800  0.00  0.00     0.000 OA
ATOM     30   O  SGN F   2     -18.920  53.419 176.9310  0.00  0.00     0.000 OA
ATOM     31   O  SGN F   2     -16.590  53.444 177.3350  0.00  0.00     0.000 OA
ATOM     32   O  SGN F   2     -19.767  49.437 177.0530  0.00  0.00     0.000 O
ATOM     34  HD  SGN F   2     -19.551  49.295 177.8800  0.00  0.00     0.000 HD
ATOM     34   C  SGN F   2     -19.749  48.270 172.2650  0.00  0.00     0.000 C
ATOM     35   O  SGN F   2     -20.862  49.089 172.1380  0.00  0.00     0.000 O
ATOM     36   S  SGN F   2     -21.842  49.134 170.9710  0.00  0.00     0.000 S
ATOM     37   O  SGN F   2     -23.137  48.926 171.5690  0.00  0.00     0.000 OA
ATOM     38   O  SGN F   2     -21.652  50.447 170.3940  0.00  0.00     0.000 OA
ATOM     39   O  SGN F   2     -21.465  48.065 170.0550  0.00  0.00     0.000 OA
BRANCH 20 40
ATOM     40  O4  IDS F   3     -16.555  49.862 174.2420  0.00  0.00     0.000 O
BRANCH 40 44
ATOM     41  C1  IDS F   3     -13.266  48.711 174.4620  0.00  0.00     0.000 C
ATOM     42  C2  IDS F   3     -13.727  49.847 175.3400  0.00  0.00     0.000 C
ATOM     43  C3  IDS F   3     -14.459  50.984 174.5300  0.00  0.00     0.000 C
ATOM     44  C4  IDS F   3     -15.454  50.415 173.5350  0.00  0.00     0.000 C
ATOM     45  C5  IDS F   3     -14.767  49.330 172.7070  0.00  0.00     0.000 C
ATOM     46  O5  IDS F   3     -14.298  48.303 173.5520  0.00  0.00     0.000 O
ATOM     47   O  IDS F   3     -14.843  50.699 178.2570  0.00  0.00     0.000 OA
ATOM     48   O  IDS F   3     -15.176  48.366 178.4720  0.00  0.00     0.000 OA
ATOM     49   O  IDS F   3     -12.989  49.278 178.0370  0.00  0.00     0.000 OA
ATOM     50   O  IDS F   3     -14.591  49.319 176.3520  0.00  0.00     0.000 O
ATOM     51   S  IDS F   3     -14.391  49.411 177.8720  0.00  0.00     0.000 S
ATOM     52   O  IDS F   3     -13.503  51.729 173.7830  0.00  0.00     0.000 O
ATOM     54  HD  IDS F   3     -13.448  51.298 174.5320  0.00  0.00     0.000 HD
ATOM     54   C  IDS F   3     -15.611  48.747 171.5680  0.00  0.00     0.000 C
ATOM     55   O  IDS F   3     -16.210  47.683 171.7010  0.00  0.00     0.000 OA
ATOM     56   O  IDS F   3     -15.722  49.337 170.4850  0.00  0.00     0.000 OA
BRANCH 41 57
ATOM     57  O4  SGN F   4     -12.098  49.102 173.8000  0.00  0.00     0.000 O
BRANCH 57 61
ATOM     58  C1  SGN F   4     -10.917  45.228 173.2140  0.00  0.00     0.000 C
ATOM     59  C2  SGN F   4     -10.332  45.937 174.4450  0.00  0.00     0.000 C
ATOM     60  C3  SGN F   4     -11.119  47.188 174.7920  0.00  0.00     0.000 C
ATOM     61  C4  SGN F   4     -11.215  48.061 173.5420  0.00  0.00     0.000 C
ATOM     62  C5  SGN F   4     -11.756  47.235 172.3590  0.00  0.00     0.000 C
ATOM     63  O5  SGN F   4     -10.959  46.114 172.1300  0.00  0.00     0.000 O
ATOM     64   N  SGN F   4     -10.255  45.029 175.5720  0.00  0.00     0.000 N
ATOM     66  HD  SGN F   4     -10.082  45.141 174.7310  0.00  0.00     0.000 HD
ATOM     66   S  SGN F   4      -8.922  44.099 175.7020  0.00  0.00     0.000 S
ATOM     67   O  SGN F   4      -8.986  43.151 174.6050  0.00  0.00     0.000 OA
ATOM     68   O  SGN F   4      -7.749  44.965 175.6090  0.00  0.00     0.000 OA
ATOM     69   O  SGN F   4      -9.084  43.466 176.9910  0.00  0.00     0.000 OA
ATOM     70   O  SGN F   4     -10.431  47.926 175.7920  0.00  0.00     0.000 O
ATOM     72  HD  SGN F   4     -10.259  48.038 174.9500  0.00  0.00     0.000 HD
ATOM     72   C  SGN F   4     -11.770  47.969 171.0430  0.00  0.00     0.000 C
ATOM     73   O  SGN F   4     -10.442  48.344 170.7570  0.00  0.00     0.000 O
ATOM     74   S  SGN F   4      -9.837  48.503 169.3320  0.00  0.00     0.000 S
ATOM     75   O  SGN F   4     -10.859  48.979 168.4600  0.00  0.00     0.000 OA
ATOM     76   O  SGN F   4      -8.727  49.448 169.4380  0.00  0.00     0.000 OA
ATOM     77   O  SGN F   4      -9.465  47.189 168.9790  0.00  0.00     0.000 OA
BRANCH 58 78
ATOM     78  O4  IDS F   5     -12.191  44.703 173.4990  0.00  0.00     0.000 O
BRANCH 78 82
ATOM     79  C1  IDS F   5     -15.199  42.942 173.5290  0.00  0.00     0.000 C
ATOM     80  C2  IDS F   5     -14.273  42.936 174.7370  0.00  0.00     0.000 C
ATOM     81  C3  IDS F   5     -12.841  42.555 174.3570  0.00  0.00     0.000 C
ATOM     82  C4  IDS F   5     -12.363  43.364 173.1320  0.00  0.00     0.000 C
ATOM     83  C5  IDS F   5     -13.404  43.273 172.0140  0.00  0.00     0.000 C
ATOM     84  O5  IDS F   5     -14.667  43.704 172.4760  0.00  0.00     0.000 O
ATOM     85   O  IDS F   5     -15.444  41.608 173.1600  0.00  0.00     0.000 OA
ATOM     86   O  IDS F   5     -14.237  44.232 175.2650  0.00  0.00     0.000 O
ATOM     87   S  IDS F   5     -13.762  44.679 176.6860  0.00  0.00     0.000 S
ATOM     88   O  IDS F   5     -12.739  43.757 177.1040  0.00  0.00     0.000 OA
ATOM     89   O  IDS F   5     -13.256  46.024 176.5360  0.00  0.00     0.000 OA
ATOM     90   O  IDS F   5     -14.936  44.588 177.5140  0.00  0.00     0.000 OA
ATOM     91   O  IDS F   5     -12.823  41.179 174.0320  0.00  0.00     0.000 O
ATOM     93  HD  IDS F   5     -12.801  41.213 173.1670  0.00  0.00     0.000 HD
ATOM     93   O  IDS F   5     -13.642  44.956 170.3550  0.00  0.00     0.000 OA
ATOM     94   O  IDS F   5     -12.049  43.656 170.0900  0.00  0.00     0.000 OA
ATOM     95   C  IDS F   5     -13.013  44.006 170.7440  0.00  0.00     0.000 C
ENDBRANCH 78 82
ENDBRANCH 58 78
ENDBRANCH 57 61
ENDBRANCH 41 57
ENDBRANCH 40 44
ENDBRANCH 20 40
ENDBRANCH 19 23
ENDBRANCH 1 19
TORSDOF 8
ENDMDL
MODEL 41
REMARK VINA RESULT:      -6.0      1.535      2.082
FFDIST PL LJ 2322 74 36 -1
ROOT
ATOM      1  C1  IDS F   1     -10.572  47.685 171.7900  0.00  0.00     0.000 C
ATOM      2  C2  IDS F   1      -9.261  47.803 172.5840  0.00  0.00     0.000 C
ATOM      3  C3  IDS F   1      -8.027  47.289 171.8030  0.00  0.00     0.000 C
ATOM      4  C4  IDS F   1      -8.056  47.624 170.2930  0.00  0.00     0.000 C
ATOM      5  C5  IDS F   1      -9.481  47.487 169.7440  0.00  0.00     0.000 C
ATOM      6  O5  IDS F   1     -10.367  48.230 170.5140  0.00  0.00     0.000 O
ATOM      7   S  IDS F   1      -8.040  49.733 174.0290  0.00  0.00     0.000 S
ATOM      8   O  IDS F   1      -6.787  49.079 173.8010  0.00  0.00     0.000 OA
ATOM      9   O  IDS F   1      -7.929  51.149 173.8310  0.00  0.00     0.000 OA
ATOM     10   O  IDS F   1      -8.647  49.379 175.2910  0.00  0.00     0.000 OA
ATOM     11   O  IDS F   1      -9.011  49.155 172.9120  0.00  0.00     0.000 O
ATOM     12   O  IDS F   1      -7.949  45.873 171.9480  0.00  0.00     0.000 O
ATOM     14  HD  IDS F   1      -7.654  45.295 171.3750  0.00  0.00     0.000 HD
ATOM     14   O  IDS F   1      -7.620  48.953 170.1490  0.00  0.00     0.000 O
ATOM     16  HD  IDS F   1      -7.326  48.375 169.5760  0.00  0.00     0.000 HD
ATOM     16   O  IDS F   1     -10.668  48.456 167.9220  0.00  0.00     0.000 OA
ATOM     17   O  IDS F   1      -8.879  47.491 167.4250  0.00  0.00     0.000 OA
ATOM     18   C  IDS F   1      -9.679  47.831 168.2820  0.00  0.00     0.000 C
ENDROOT
BRANCH 1 19
ATOM     19  O4  SGN F   2     -11.552  48.435 172.4250  0.00  0.00     0.000 O
BRANCH 19 23
ATOM     20  C1  SGN F   2     -15.078  47.940 174.5950  0.00  0.00     0.000 C
ATOM     21  C2  SGN F   2     -13.796  47.874 175.4100  0.00  0.00     0.000 C
ATOM     22  C3  SGN F   2     -12.648  48.591 174.6840  0.00  0.00     0.000 C
ATOM     23  C4  SGN F   2     -12.520  47.888 173.2940  0.00  0.00     0.000 C
ATOM     24  C5  SGN F   2     -13.837  48.057 172.6130  0.00  0.00     0.000 C
ATOM     25  O5  SGN F   2     -14.840  47.404 173.3230  0.00  0.00     0.000 O
ATOM     26   N  SGN F   2     -14.076  48.349 176.7860  0.00  0.00     0.000 N
ATOM     28  HD  SGN F   2     -13.686  48.882 177.3460  0.00  0.00     0.000 HD
ATOM     28   S  SGN F   2     -14.742  47.252 177.8640  0.00  0.00     0.000 S
ATOM     29   O  SGN F   2     -15.872  46.631 177.2100  0.00  0.00     0.000 OA
ATOM     30   O  SGN F   2     -13.677  46.313 178.1360  0.00  0.00     0.000 OA
ATOM     31   O  SGN F   2     -15.096  47.983 179.0260  0.00  0.00     0.000 OA
ATOM     32   O  SGN F   2     -11.459  48.418 175.4450  0.00  0.00     0.000 O
ATOM     34  HD  SGN F   2     -11.069  48.951 176.0050  0.00  0.00     0.000 HD
ATOM     34   C  SGN F   2     -13.847  47.478 171.2380  0.00  0.00     0.000 C
ATOM     35   O  SGN F   2     -13.454  46.157 171.3970  0.00  0.00     0.000 O
ATOM     36   S  SGN F   2     -13.468  45.060 170.3380  0.00  0.00     0.000 S
ATOM     37   O  SGN F   2     -12.118  44.555 170.3130  0.00  0.00     0.000 OA
ATOM     38   O  SGN F   2     -14.453  44.114 170.8150  0.00  0.00     0.000 OA
ATOM     39   O  SGN F   2     -13.860  45.684 169.0810  0.00  0.00     0.000 OA
BRANCH 20 40
ATOM     40  O4  IDS F   3     -15.556  49.253 174.4890  0.00  0.00     0.000 O
BRANCH 40 44
ATOM     41  C1  IDS F   3     -17.381  52.230 174.5330  0.00  0.00     0.000 C
ATOM     42  C2  IDS F   3     -17.214  51.430 175.8000  0.00  0.00     0.000 C
ATOM     43  C3  IDS F   3     -17.570  49.906 175.6080  0.00  0.00     0.000 C
ATOM     44  C4  IDS F   3     -16.967  49.343 174.3360  0.00  0.00     0.000 C
ATOM     45  C5  IDS F   3     -17.307  50.269 173.1680  0.00  0.00     0.000 C
ATOM     46  O5  IDS F   3     -16.791  51.558 173.4100  0.00  0.00     0.000 O
ATOM     47   O  IDS F   3     -15.535  51.071 178.5440  0.00  0.00     0.000 OA
ATOM     48   O  IDS F   3     -14.040  52.553 177.4630  0.00  0.00     0.000 OA
ATOM     49   O  IDS F   3     -16.330  53.175 177.8770  0.00  0.00     0.000 OA
ATOM     50   O  IDS F   3     -15.865  51.574 176.2560  0.00  0.00     0.000 O
ATOM     51   S  IDS F   3     -15.408  52.133 177.6120  0.00  0.00     0.000 S
ATOM     52   O  IDS F   3     -18.982  49.756 175.5010  0.00  0.00     0.000 O
ATOM     54  HD  IDS F   3     -18.489  50.335 175.9150  0.00  0.00     0.000 HD
ATOM     54   C  IDS F   3     -16.872  49.764 171.7880  0.00  0.00     0.000 C
ATOM     55   O  IDS F   3     -15.837  50.165 171.2620  0.00  0.00     0.000 OA
ATOM     56   O  IDS F   3     -17.545  48.930 171.1690  0.00  0.00     0.000 OA
BRANCH 41 57
ATOM     57  O4  SGN F   4     -18.741  52.490 174.3420  0.00  0.00     0.000 O
BRANCH 57 61
ATOM     58  C1  SGN F   4     -20.742  54.826 171.6430  0.00  0.00     0.000 C
ATOM     59  C2  SGN F   4     -20.871  53.306 171.4520  0.00  0.00     0.000 C
ATOM     60  C3  SGN F   4     -20.446  52.552 172.7000  0.00  0.00     0.000 C
ATOM     61  C4  SGN F   4     -19.049  53.026 173.0980  0.00  0.00     0.000 C
ATOM     62  C5  SGN F   4     -19.020  54.563 173.2010  0.00  0.00     0.000 C
ATOM     63  O5  SGN F   4     -19.429  55.150 172.0040  0.00  0.00     0.000 O
ATOM     64   N  SGN F   4     -22.219  52.951 171.0520  0.00  0.00     0.000 N
ATOM     66  HD  SGN F   4     -21.544  53.475 170.9070  0.00  0.00     0.000 HD
ATOM     66   S  SGN F   4     -22.569  52.996 169.4600  0.00  0.00     0.000 S
ATOM     67   O  SGN F   4     -22.543  54.397 169.0830  0.00  0.00     0.000 OA
ATOM     68   O  SGN F   4     -21.557  52.218 168.7470  0.00  0.00     0.000 OA
ATOM     69   O  SGN F   4     -23.897  52.430 169.3970  0.00  0.00     0.000 OA
ATOM     70   O  SGN F   4     -20.374  51.161 172.4190  0.00  0.00     0.000 O
ATOM     72  HD  SGN F   4     -19.700  51.685 172.2750  0.00  0.00     0.000 HD
ATOM     72   C  SGN F   4     -17.655  55.143 173.4650  0.00  0.00     0.000 C
ATOM     73   O  SGN F   4     -16.819  54.751 172.4000  0.00  0.00     0.000 O
ATOM     74   S  SGN F   4     -15.607  55.563 171.8590  0.00  0.00     0.000 S
ATOM     75   O  SGN F   4     -15.004  56.253 172.9510  0.00  0.00     0.000 OA
ATOM     76   O  SGN F   4     -14.688  54.607 171.2440  0.00  0.00     0.000 OA
ATOM     77   O  SGN F   4     -16.195  56.481 170.9640  0.00  0.00     0.000 OA
BRANCH 58 78
ATOM     78  O4  IDS F   5     -21.668  55.289 172.5960  0.00  0.00     0.000 O
BRANCH 78 82
ATOM     79  C1  IDS F   5     -23.672  57.538 174.3500  0.00  0.00     0.000 C
ATOM     80  C2  IDS F   5     -24.071  56.076 174.2070  0.00  0.00     0.000 C
ATOM     81  C3  IDS F   5     -24.043  55.616 172.7480  0.00  0.00     0.000 C
ATOM     82  C4  IDS F   5     -22.724  56.035 172.0640  0.00  0.00     0.000 C
ATOM     83  C5  IDS F   5     -22.468  57.524 172.3050  0.00  0.00     0.000 C
ATOM     84  O5  IDS F   5     -22.463  57.808 173.6890  0.00  0.00     0.000 O
ATOM     85   O  IDS F   5     -24.734  58.328 173.8760  0.00  0.00     0.000 OA
ATOM     86   O  IDS F   5     -23.140  55.300 174.9100  0.00  0.00     0.000 O
ATOM     87   S  IDS F   5     -23.292  53.821 175.3950  0.00  0.00     0.000 S
ATOM     88   O  IDS F   5     -24.149  53.149 174.4540  0.00  0.00     0.000 OA
ATOM     89   O  IDS F   5     -21.959  53.265 175.4100  0.00  0.00     0.000 OA
ATOM     90   O  IDS F   5     -23.898  53.919 176.6960  0.00  0.00     0.000 OA
ATOM     91   O  IDS F   5     -25.125  56.227 172.0730  0.00  0.00     0.000 O
ATOM     93  HD  IDS F   5     -24.716  56.859 171.6440  0.00  0.00     0.000 HD
ATOM     93   O  IDS F   5     -20.284  58.459 172.2930  0.00  0.00     0.000 OA
ATOM     94   O  IDS F   5     -21.102  58.068 170.4280  0.00  0.00     0.000 OA
ATOM     95   C  IDS F   5     -21.210  58.051 171.6400  0.00  0.00     0.000 C
ENDBRANCH 78 82
ENDBRANCH 58 78
ENDBRANCH 57 61
ENDBRANCH 41 57
ENDBRANCH 40 44
ENDBRANCH 20 40
ENDBRANCH 19 23
ENDBRANCH 1 19
TORSDOF 8
ENDMDL
MODEL 42
REMARK VINA RESULT:      -6.0      3.043      6.528
FFDIST PL LJ 2322 74 36 -1
ROOT
ATOM      1  C1  IDS F   1     -10.870  47.516 172.9970  0.00  0.00     0.000 C
ATOM      2  C2  IDS F   1     -10.902  48.284 171.6650  0.00  0.00     0.000 C
ATOM      3  C3  IDS F   1      -9.519  48.361 170.9730  0.00  0.00     0.000 C
ATOM      4  C4  IDS F   1      -8.677  47.071 171.1080  0.00  0.00     0.000 C
ATOM      5  C5  IDS F   1      -8.854  46.462 172.5040  0.00  0.00     0.000 C
ATOM      6  O5  IDS F   1     -10.203  46.299 172.7900  0.00  0.00     0.000 O
ATOM      7   S  IDS F   1     -12.453  48.256 169.4530  0.00  0.00     0.000 S
ATOM      8   O  IDS F   1     -11.365  48.820 168.7120  0.00  0.00     0.000 OA
ATOM      9   O  IDS F   1     -13.069  47.181 168.7320  0.00  0.00     0.000 OA
ATOM     10   O  IDS F   1     -13.397  49.244 169.9220  0.00  0.00     0.000 OA
ATOM     11   O  IDS F   1     -11.784  47.651 170.7610  0.00  0.00     0.000 O
ATOM     12   O  IDS F   1      -8.782  49.442 171.5400  0.00  0.00     0.000 O
ATOM     14  HD  IDS F   1      -7.926  49.499 171.6550  0.00  0.00     0.000 HD
ATOM     14   O  IDS F   1      -9.136  46.165 170.1350  0.00  0.00     0.000 O
ATOM     16  HD  IDS F   1      -8.280  46.222 170.2510  0.00  0.00     0.000 HD
ATOM     16   O  IDS F   1      -8.670  44.265 173.4020  0.00  0.00     0.000 OA
ATOM     17   O  IDS F   1      -6.982  44.972 172.3890  0.00  0.00     0.000 OA
ATOM     18   C  IDS F   1      -8.125  45.162 172.7730  0.00  0.00     0.000 C
ENDROOT
BRANCH 1 19
ATOM     19  O4  SGN F   2     -12.171  47.232 173.3850  0.00  0.00     0.000 O
BRANCH 19 23
ATOM     20  C1  SGN F   2     -15.082  48.448 176.1120  0.00  0.00     0.000 C
ATOM     21  C2  SGN F   2     -14.055  49.505 175.7390  0.00  0.00     0.000 C
ATOM     22  C3  SGN F   2     -13.404  49.183 174.3860  0.00  0.00     0.000 C
ATOM     23  C4  SGN F   2     -12.779  47.760 174.5440  0.00  0.00     0.000 C
ATOM     24  C5  SGN F   2     -13.904  46.840 174.8830  0.00  0.00     0.000 C
ATOM     25  O5  SGN F   2     -14.466  47.190 176.1070  0.00  0.00     0.000 O
ATOM     26   N  SGN F   2     -14.685  50.843 175.8420  0.00  0.00     0.000 N
ATOM     28  HD  SGN F   2     -14.700  51.557 175.3520  0.00  0.00     0.000 HD
ATOM     28   S  SGN F   2     -14.765  51.548 177.3600  0.00  0.00     0.000 S
ATOM     29   O  SGN F   2     -15.312  50.564 178.2670  0.00  0.00     0.000 OA
ATOM     30   O  SGN F   2     -13.397  51.890 177.6790  0.00  0.00     0.000 OA
ATOM     31   O  SGN F   2     -15.572  52.706 177.2330  0.00  0.00     0.000 OA
ATOM     32   O  SGN F   2     -12.391  50.151 174.1350  0.00  0.00     0.000 O
ATOM     34  HD  SGN F   2     -12.407  50.864 173.6450  0.00  0.00     0.000 HD
ATOM     34   C  SGN F   2     -13.462  45.421 175.0120  0.00  0.00     0.000 C
ATOM     35   O  SGN F   2     -12.440  45.441 175.9510  0.00  0.00     0.000 O
ATOM     36   S  SGN F   2     -11.756  44.239 176.5920  0.00  0.00     0.000 S
ATOM     37   O  SGN F   2     -10.352  44.432 176.3310  0.00  0.00     0.000 OA
ATOM     38   O  SGN F   2     -12.125  44.319 177.9880  0.00  0.00     0.000 OA
ATOM     39   O  SGN F   2     -12.292  43.047 175.9450  0.00  0.00     0.000 OA
BRANCH 20 40
ATOM     40  O4  IDS F   3     -16.176  48.458 175.2350  0.00  0.00     0.000 O
BRANCH 40 44
ATOM     41  C1  IDS F   3     -18.478  49.037 172.6740  0.00  0.00     0.000 C
ATOM     42  C2  IDS F   3     -17.032  48.766 172.3410  0.00  0.00     0.000 C
ATOM     43  C3  IDS F   3     -16.038  49.665 173.1710  0.00  0.00     0.000 C
ATOM     44  C4  IDS F   3     -16.423  49.724 174.6370  0.00  0.00     0.000 C
ATOM     45  C5  IDS F   3     -17.907  50.074 174.7510  0.00  0.00     0.000 C
ATOM     46  O5  IDS F   3     -18.684  49.098 174.0930  0.00  0.00     0.000 O
ATOM     47   O  IDS F   3     -14.857  46.540 171.4500  0.00  0.00     0.000 OA
ATOM     48   O  IDS F   3     -16.597  45.048 172.0370  0.00  0.00     0.000 OA
ATOM     49   O  IDS F   3     -16.917  46.731 170.3440  0.00  0.00     0.000 OA
ATOM     50   O  IDS F   3     -16.764  47.379 172.5720  0.00  0.00     0.000 O
ATOM     51   S  IDS F   3     -16.260  46.356 171.5420  0.00  0.00     0.000 S
ATOM     52   O  IDS F   3     -16.075  51.000 172.6770  0.00  0.00     0.000 O
ATOM     54  HD  IDS F   3     -16.208  50.234 172.2940  0.00  0.00     0.000 HD
ATOM     54   C  IDS F   3     -18.417  50.296 176.1780  0.00  0.00     0.000 C
ATOM     55   O  IDS F   3     -19.007  49.408 176.7880  0.00  0.00     0.000 OA
ATOM     56   O  IDS F   3     -18.239  51.373 176.7630  0.00  0.00     0.000 OA
BRANCH 41 57
ATOM     57  O4  SGN F   4     -18.874  50.212 172.0280  0.00  0.00     0.000 O
BRANCH 57 61
ATOM     58  C1  SGN F   4     -22.514  51.678 170.8670  0.00  0.00     0.000 C
ATOM     59  C2  SGN F   4     -21.893  52.316 172.1190  0.00  0.00     0.000 C
ATOM     60  C3  SGN F   4     -20.411  52.001 172.2270  0.00  0.00     0.000 C
ATOM     61  C4  SGN F   4     -20.232  50.487 172.1310  0.00  0.00     0.000 C
ATOM     62  C5  SGN F   4     -20.943  49.948 170.8750  0.00  0.00     0.000 C
ATOM     63  O5  SGN F   4     -22.294  50.295 170.8800  0.00  0.00     0.000 O
ATOM     64   N  SGN F   4     -22.134  53.746 172.1400  0.00  0.00     0.000 N
ATOM     66  HD  SGN F   4     -22.487  52.963 172.0320  0.00  0.00     0.000 HD
ATOM     66   S  SGN F   4     -23.534  54.266 172.7930  0.00  0.00     0.000 S
ATOM     67   O  SGN F   4     -24.583  53.836 171.8870  0.00  0.00     0.000 OA
ATOM     68   O  SGN F   4     -23.673  53.664 174.1170  0.00  0.00     0.000 OA
ATOM     69   O  SGN F   4     -23.376  55.703 172.8140  0.00  0.00     0.000 OA
ATOM     70   O  SGN F   4     -19.922  52.422 173.4920  0.00  0.00     0.000 O
ATOM     72  HD  SGN F   4     -20.275  51.639 173.3840  0.00  0.00     0.000 HD
ATOM     72   C  SGN F   4     -20.935  48.446 170.7530  0.00  0.00     0.000 C
ATOM     73   O  SGN F   4     -21.585  47.929 171.8910  0.00  0.00     0.000 O
ATOM     74   S  SGN F   4     -22.392  46.599 171.9420  0.00  0.00     0.000 S
ATOM     75   O  SGN F   4     -21.784  45.669 171.0490  0.00  0.00     0.000 OA
ATOM     76   O  SGN F   4     -22.360  46.129 173.3250  0.00  0.00     0.000 OA
ATOM     77   O  SGN F   4     -23.670  46.968 171.4700  0.00  0.00     0.000 OA
BRANCH 58 78
ATOM     78  O4  IDS F   5     -22.002  52.270 169.6980  0.00  0.00     0.000 O
BRANCH 78 82
ATOM     79  C1  IDS F   5     -21.380  53.483 166.4900  0.00  0.00     0.000 C
ATOM     80  C2  IDS F   5     -21.601  54.432 167.6600  0.00  0.00     0.000 C
ATOM     81  C3  IDS F   5     -22.885  54.107 168.4250  0.00  0.00     0.000 C
ATOM     82  C4  IDS F   5     -22.969  52.598 168.7420  0.00  0.00     0.000 C
ATOM     83  C5  IDS F   5     -22.721  51.787 167.4690  0.00  0.00     0.000 C
ATOM     84  O5  IDS F   5     -21.482  52.141 166.8900  0.00  0.00     0.000 O
ATOM     85   O  IDS F   5     -22.299  53.816 165.4790  0.00  0.00     0.000 OA
ATOM     86   O  IDS F   5     -20.531  54.281 168.5500  0.00  0.00     0.000 O
ATOM     87   S  IDS F   5     -20.079  55.258 169.6850  0.00  0.00     0.000 S
ATOM     88   O  IDS F   5     -21.257  55.934 170.1610  0.00  0.00     0.000 OA
ATOM     89   O  IDS F   5     -19.472  54.435 170.7060  0.00  0.00     0.000 OA
ATOM     90   O  IDS F   5     -19.162  56.166 169.0470  0.00  0.00     0.000 OA
ATOM     91   O  IDS F   5     -23.985  54.466 167.6130  0.00  0.00     0.000 O
ATOM     93  HD  IDS F   5     -24.233  53.691 167.3180  0.00  0.00     0.000 HD
ATOM     93   O  IDS F   5     -21.859  49.574 167.5150  0.00  0.00     0.000 OA
ATOM     94   O  IDS F   5     -23.870  49.762 167.9790  0.00  0.00     0.000 OA
ATOM     95   C  IDS F   5     -22.819  50.286 167.6620  0.00  0.00     0.000 C
ENDBRANCH 78 82
ENDBRANCH 58 78
ENDBRANCH 57 61
ENDBRANCH 41 57
ENDBRANCH 40 44
ENDBRANCH 20 40
ENDBRANCH 19 23
ENDBRANCH 1 19
TORSDOF 8
ENDMDL
MODEL 43
REMARK VINA RESULT:      -5.9      3.173      5.701
FFDIST PL LJ 2322 74 36 -1
ROOT
ATOM      1  C1  IDS F   1     -10.324  47.518 172.0540  0.00  0.00     0.000 C
ATOM      2  C2  IDS F   1      -9.028  47.500 172.8820  0.00  0.00     0.000 C
ATOM      3  C3  IDS F   1      -7.843  46.833 172.1430  0.00  0.00     0.000 C
ATOM      4  C4  IDS F   1      -7.794  47.141 170.6280  0.00  0.00     0.000 C
ATOM      5  C5  IDS F   1      -9.211  47.157 170.0430  0.00  0.00     0.000 C
ATOM      6  O5  IDS F   1     -10.025  48.011 170.7760  0.00  0.00     0.000 O
ATOM      7   S  IDS F   1      -7.631  49.305 174.3290  0.00  0.00     0.000 S
ATOM      8   O  IDS F   1      -6.456  48.507 174.1460  0.00  0.00     0.000 OA
ATOM      9   O  IDS F   1      -7.353  50.694 174.1110  0.00  0.00     0.000 OA
ATOM     10   O  IDS F   1      -8.307  49.047 175.5800  0.00  0.00     0.000 OA
ATOM     11   O  IDS F   1      -8.633  48.821 173.1950  0.00  0.00     0.000 O
ATOM     12   O  IDS F   1      -7.931  45.421 172.3140  0.00  0.00     0.000 O
ATOM     14  HD  IDS F   1      -7.691  44.802 171.7580  0.00  0.00     0.000 HD
ATOM     14   O  IDS F   1      -7.204  48.408 170.4750  0.00  0.00     0.000 O
ATOM     16  HD  IDS F   1      -6.964  47.789 169.9190  0.00  0.00     0.000 HD
ATOM     16   O  IDS F   1     -10.232  48.220 168.1730  0.00  0.00     0.000 OA
ATOM     17   O  IDS F   1      -8.554  47.048 167.7420  0.00  0.00     0.000 OA
ATOM     18   C  IDS F   1      -9.331  47.494 168.5700  0.00  0.00     0.000 C
ENDROOT
BRANCH 1 19
ATOM     19  O4  SGN F   2     -11.227  48.387 172.6500  0.00  0.00     0.000 O
BRANCH 19 23
ATOM     20  C1  SGN F   2     -14.712  48.455 174.9390  0.00  0.00     0.000 C
ATOM     21  C2  SGN F   2     -13.471  47.943 175.6530  0.00  0.00     0.000 C
ATOM     22  C3  SGN F   2     -12.195  48.455 174.9710  0.00  0.00     0.000 C
ATOM     23  C4  SGN F   2     -12.283  47.971 173.4880  0.00  0.00     0.000 C
ATOM     24  C5  SGN F   2     -13.528  48.570 172.9220  0.00  0.00     0.000 C
ATOM     25  O5  SGN F   2     -14.648  48.084 173.5900  0.00  0.00     0.000 O
ATOM     26   N  SGN F   2     -13.589  48.250 177.0990  0.00  0.00     0.000 N
ATOM     28  HD  SGN F   2     -13.062  48.573 177.7060  0.00  0.00     0.000 HD
ATOM     28   S  SGN F   2     -14.489  47.199 178.0440  0.00  0.00     0.000 S
ATOM     29   O  SGN F   2     -15.755  46.992 177.3780  0.00  0.00     0.000 OA
ATOM     30   O  SGN F   2     -13.696  45.992 178.1090  0.00  0.00     0.000 OA
ATOM     31   O  SGN F   2     -14.618  47.803 179.3200  0.00  0.00     0.000 OA
ATOM     32   O  SGN F   2     -11.073  47.872 175.6230  0.00  0.00     0.000 O
ATOM     34  HD  SGN F   2     -10.546  48.195 176.2290  0.00  0.00     0.000 HD
ATOM     34   C  SGN F   2     -13.717  48.235 171.4800  0.00  0.00     0.000 C
ATOM     35   O  SGN F   2     -13.673  46.850 171.4190  0.00  0.00     0.000 O
ATOM     36   S  SGN F   2     -13.992  45.972 170.2140  0.00  0.00     0.000 S
ATOM     37   O  SGN F   2     -12.819  45.156 170.0310  0.00  0.00     0.000 OA
ATOM     38   O  SGN F   2     -15.177  45.241 170.6070  0.00  0.00     0.000 OA
ATOM     39   O  SGN F   2     -14.240  46.864 169.0880  0.00  0.00     0.000 OA
BRANCH 20 40
ATOM     40  O4  IDS F   3     -14.838  49.847 175.0570  0.00  0.00     0.000 O
BRANCH 40 44
ATOM     41  C1  IDS F   3     -15.968  53.078 174.3660  0.00  0.00     0.000 C
ATOM     42  C2  IDS F   3     -16.775  51.885 173.9180  0.00  0.00     0.000 C
ATOM     43  C3  IDS F   3     -15.907  50.818 173.1470  0.00  0.00     0.000 C
ATOM     44  C4  IDS F   3     -14.589  50.552 173.8480  0.00  0.00     0.000 C
ATOM     45  C5  IDS F   3     -13.907  51.885 174.1540  0.00  0.00     0.000 C
ATOM     46  O5  IDS F   3     -14.736  52.672 174.9800  0.00  0.00     0.000 O
ATOM     47   O  IDS F   3     -19.257  49.919 174.5930  0.00  0.00     0.000 OA
ATOM     48   O  IDS F   3     -19.089  50.940 176.7210  0.00  0.00     0.000 OA
ATOM     49   O  IDS F   3     -19.483  52.250 174.7380  0.00  0.00     0.000 OA
ATOM     50   O  IDS F   3     -17.390  51.293 175.0670  0.00  0.00     0.000 O
ATOM     51   S  IDS F   3     -18.894  51.092 175.3040  0.00  0.00     0.000 S
ATOM     52   O  IDS F   3     -15.596  51.306 171.8460  0.00  0.00     0.000 O
ATOM     54  HD  IDS F   3     -16.269  51.444 172.3730  0.00  0.00     0.000 HD
ATOM     54   C  IDS F   3     -12.499  51.776 174.7500  0.00  0.00     0.000 C
ATOM     55   O  IDS F   3     -12.312  51.879 175.9600  0.00  0.00     0.000 OA
ATOM     56   O  IDS F   3     -11.513  51.571 174.0310  0.00  0.00     0.000 OA
BRANCH 41 57
ATOM     57  O4  SGN F   4     -15.764  53.919 173.2680  0.00  0.00     0.000 O
BRANCH 57 61
ATOM     58  C1  SGN F   4     -15.706  57.947 172.5480  0.00  0.00     0.000 C
ATOM     59  C2  SGN F   4     -14.498  57.375 173.3070  0.00  0.00     0.000 C
ATOM     60  C3  SGN F   4     -14.420  55.865 173.1700  0.00  0.00     0.000 C
ATOM     61  C4  SGN F   4     -15.766  55.273 173.5810  0.00  0.00     0.000 C
ATOM     62  C5  SGN F   4     -16.907  55.958 172.8040  0.00  0.00     0.000 C
ATOM     63  O5  SGN F   4     -16.883  57.339 173.0010  0.00  0.00     0.000 O
ATOM     64   N  SGN F   4     -13.270  58.011 172.8710  0.00  0.00     0.000 N
ATOM     66  HD  SGN F   4     -14.085  58.136 173.1360  0.00  0.00     0.000 HD
ATOM     66   S  SGN F   4     -12.840  59.403 173.6040  0.00  0.00     0.000 S
ATOM     67   O  SGN F   4     -13.813  60.395 173.1850  0.00  0.00     0.000 OA
ATOM     68   O  SGN F   4     -12.868  59.186 175.0490  0.00  0.00     0.000 OA
ATOM     69   O  SGN F   4     -11.521  59.663 173.0740  0.00  0.00     0.000 OA
ATOM     70   O  SGN F   4     -13.428  55.354 174.0490  0.00  0.00     0.000 O
ATOM     72  HD  SGN F   4     -14.243  55.479 174.3130  0.00  0.00     0.000 HD
ATOM     72   C  SGN F   4     -18.289  55.535 173.2280  0.00  0.00     0.000 C
ATOM     73   O  SGN F   4     -18.425  55.853 174.5940  0.00  0.00     0.000 O
ATOM     74   S  SGN F   4     -19.758  56.230 175.3030  0.00  0.00     0.000 S
ATOM     75   O  SGN F   4     -20.818  55.504 174.6860  0.00  0.00     0.000 OA
ATOM     76   O  SGN F   4     -19.608  55.882 176.7140  0.00  0.00     0.000 OA
ATOM     77   O  SGN F   4     -19.893  57.610 175.0440  0.00  0.00     0.000 OA
BRANCH 58 78
ATOM     78  O4  IDS F   5     -15.544  57.786 171.1590  0.00  0.00     0.000 O
BRANCH 78 82
ATOM     79  C1  IDS F   5     -15.612  57.974 167.6790  0.00  0.00     0.000 C
ATOM     80  C2  IDS F   5     -14.349  58.310 168.4600  0.00  0.00     0.000 C
ATOM     81  C3  IDS F   5     -14.617  59.330 169.5690  0.00  0.00     0.000 C
ATOM     82  C4  IDS F   5     -15.850  58.922 170.4040  0.00  0.00     0.000 C
ATOM     83  C5  IDS F   5     -17.026  58.614 169.4740  0.00  0.00     0.000 C
ATOM     84  O5  IDS F   5     -16.667  57.621 168.5350  0.00  0.00     0.000 O
ATOM     85   O  IDS F   5     -15.925  59.073 166.8610  0.00  0.00     0.000 OA
ATOM     86   O  IDS F   5     -13.889  57.136 169.0700  0.00  0.00     0.000 O
ATOM     87   S  IDS F   5     -12.466  56.849 169.6510  0.00  0.00     0.000 S
ATOM     88   O  IDS F   5     -11.936  58.101 170.1230  0.00  0.00     0.000 OA
ATOM     89   O  IDS F   5     -12.654  55.899 170.7240  0.00  0.00     0.000 OA
ATOM     90   O  IDS F   5     -11.711  56.332 168.5410  0.00  0.00     0.000 OA
ATOM     91   O  IDS F   5     -14.867  60.583 168.9630  0.00  0.00     0.000 O
ATOM     93  HD  IDS F   5     -15.730  60.627 169.0260  0.00  0.00     0.000 HD
ATOM     93   O  IDS F   5     -18.783  57.139 170.0880  0.00  0.00     0.000 OA
ATOM     94   O  IDS F   5     -18.878  59.038 170.9140  0.00  0.00     0.000 OA
ATOM     95   C  IDS F   5     -18.305  58.239 170.1980  0.00  0.00     0.000 C
ENDBRANCH 78 82
ENDBRANCH 58 78
ENDBRANCH 57 61
ENDBRANCH 41 57
ENDBRANCH 40 44
ENDBRANCH 20 40
ENDBRANCH 19 23
ENDBRANCH 1 19
TORSDOF 8
ENDMDL
MODEL 44
REMARK VINA RESULT:      -5.8      4.123     13.030
FFDIST PL LJ 2322 74 36 -1
ROOT
ATOM      1  C1  IDS F   1     -20.821  49.095 172.2470  0.00  0.00     0.000 C
ATOM      2  C2  IDS F   1     -20.567  50.178 173.3090  0.00  0.00     0.000 C
ATOM      3  C3  IDS F   1     -20.187  51.550 172.7000  0.00  0.00     0.000 C
ATOM      4  C4  IDS F   1     -20.956  51.896 171.4030  0.00  0.00     0.000 C
ATOM      5  C5  IDS F   1     -21.130  50.643 170.5370  0.00  0.00     0.000 C
ATOM      6  O5  IDS F   1     -21.696  49.617 171.2830  0.00  0.00     0.000 O
ATOM      7   S  IDS F   1     -21.851  51.063 175.5150  0.00  0.00     0.000 S
ATOM      8   O  IDS F   1     -21.172  52.317 175.3790  0.00  0.00     0.000 OA
ATOM      9   O  IDS F   1     -23.243  51.256 175.7970  0.00  0.00     0.000 OA
ATOM     10   O  IDS F   1     -21.202  50.160 176.4370  0.00  0.00     0.000 OA
ATOM     11   O  IDS F   1     -21.729  50.376 174.0880  0.00  0.00     0.000 O
ATOM     12   O  IDS F   1     -18.792  51.554 172.4120  0.00  0.00     0.000 O
ATOM     14  HD  IDS F   1     -18.383  51.963 171.7670  0.00  0.00     0.000 HD
ATOM     14   O  IDS F   1     -22.217  52.389 171.7810  0.00  0.00     0.000 O
ATOM     16  HD  IDS F   1     -21.809  52.798 171.1360  0.00  0.00     0.000 HD
ATOM     16   O  IDS F   1     -22.707  49.958 168.8910  0.00  0.00     0.000 OA
ATOM     17   O  IDS F   1     -21.760  51.788 168.5290  0.00  0.00     0.000 OA
ATOM     18   C  IDS F   1     -21.909  50.814 169.2490  0.00  0.00     0.000 C
ENDROOT
BRANCH 1 19
ATOM     19  O4  SGN F   2     -21.442  48.011 172.8490  0.00  0.00     0.000 O
BRANCH 19 23
ATOM     20  C1  SGN F   2     -18.892  44.713 172.7650  0.00  0.00     0.000 C
ATOM     21  C2  SGN F   2     -19.798  44.868 171.5550  0.00  0.00     0.000 C
ATOM     22  C3  SGN F   2     -20.265  46.323 171.4020  0.00  0.00     0.000 C
ATOM     23  C4  SGN F   2     -20.980  46.682 172.7450  0.00  0.00     0.000 C
ATOM     24  C5  SGN F   2     -19.965  46.505 173.8240  0.00  0.00     0.000 C
ATOM     25  O5  SGN F   2     -19.566  45.174 173.9030  0.00  0.00     0.000 O
ATOM     26   N  SGN F   2     -19.121  44.288 170.3700  0.00  0.00     0.000 N
ATOM     28  HD  SGN F   2     -18.999  44.533 169.5490  0.00  0.00     0.000 HD
ATOM     28   S  SGN F   2     -19.223  42.629 170.1540  0.00  0.00     0.000 S
ATOM     29   O  SGN F   2     -18.863  42.005 171.4070  0.00  0.00     0.000 OA
ATOM     30   O  SGN F   2     -20.602  42.389 169.7950  0.00  0.00     0.000 OA
ATOM     31   O  SGN F   2     -18.347  42.300 169.0890  0.00  0.00     0.000 OA
ATOM     32   O  SGN F   2     -21.179  46.388 170.3140  0.00  0.00     0.000 O
ATOM     34  HD  SGN F   2     -21.056  46.633 169.4930  0.00  0.00     0.000 HD
ATOM     34   C  SGN F   2     -20.494  46.868 175.1710  0.00  0.00     0.000 C
ATOM     35   O  SGN F   2     -21.637  46.099 175.3330  0.00  0.00     0.000 O
ATOM     36   S  SGN F   2     -22.468  45.941 176.6020  0.00  0.00     0.000 S
ATOM     37   O  SGN F   2     -23.808  46.299 176.2110  0.00  0.00     0.000 OA
ATOM     38   O  SGN F   2     -22.299  44.552 176.9700  0.00  0.00     0.000 OA
ATOM     39   O  SGN F   2     -21.908  46.850 177.5940  0.00  0.00     0.000 OA
BRANCH 20 40
ATOM     40  O4  IDS F   3     -17.685  45.406 172.5990  0.00  0.00     0.000 O
BRANCH 40 44
ATOM     41  C1  IDS F   3     -14.364  46.340 173.1420  0.00  0.00     0.000 C
ATOM     42  C2  IDS F   3     -14.969  46.470 171.7670  0.00  0.00     0.000 C
ATOM     43  C3  IDS F   3     -15.693  45.153 171.2930  0.00  0.00     0.000 C
ATOM     44  C4  IDS F   3     -16.560  44.562 172.3890  0.00  0.00     0.000 C
ATOM     45  C5  IDS F   3     -15.739  44.459 173.6740  0.00  0.00     0.000 C
ATOM     46  O5  IDS F   3     -15.286  45.736 174.0620  0.00  0.00     0.000 O
ATOM     47   O  IDS F   3     -16.387  48.454 169.6370  0.00  0.00     0.000 OA
ATOM     48   O  IDS F   3     -16.597  49.847 171.5380  0.00  0.00     0.000 OA
ATOM     49   O  IDS F   3     -14.439  49.094 170.7770  0.00  0.00     0.000 OA
ATOM     50   O  IDS F   3     -15.886  47.570 171.7740  0.00  0.00     0.000 O
ATOM     51   S  IDS F   3     -15.826  48.823 170.8860  0.00  0.00     0.000 S
ATOM     52   O  IDS F   3     -14.721  44.169 170.9550  0.00  0.00     0.000 O
ATOM     54  HD  IDS F   3     -14.707  45.034 170.9270  0.00  0.00     0.000 HD
ATOM     54   C  IDS F   3     -16.442  43.759 174.8430  0.00  0.00     0.000 C
ATOM     55   O  IDS F   3     -16.986  44.404 175.7360  0.00  0.00     0.000 OA
ATOM     56   O  IDS F   3     -16.493  42.524 174.9150  0.00  0.00     0.000 OA
BRANCH 41 57
ATOM     57  O4  SGN F   4     -13.168  45.624 173.0400  0.00  0.00     0.000 O
BRANCH 57 61
ATOM     58  C1  SGN F   4      -9.882  45.438 175.4720  0.00  0.00     0.000 C
ATOM     59  C2  SGN F   4     -10.759  44.177 175.4180  0.00  0.00     0.000 C
ATOM     60  C3  SGN F   4     -11.690  44.199 174.2180  0.00  0.00     0.000 C
ATOM     61  C4  SGN F   4     -12.468  45.513 174.2350  0.00  0.00     0.000 C
ATOM     62  C5  SGN F   4     -11.497  46.703 174.3510  0.00  0.00     0.000 C
ATOM     63  O5  SGN F   4     -10.692  46.580 175.4840  0.00  0.00     0.000 O
ATOM     64   N  SGN F   4      -9.939  42.981 175.4320  0.00  0.00     0.000 N
ATOM     66  HD  SGN F   4     -10.091  43.749 175.8040  0.00  0.00     0.000 HD
ATOM     66   S  SGN F   4      -9.495  42.388 176.8840  0.00  0.00     0.000 S
ATOM     67   O  SGN F   4      -8.564  43.351 177.4430  0.00  0.00     0.000 OA
ATOM     68   O  SGN F   4     -10.695  42.246 177.7070  0.00  0.00     0.000 OA
ATOM     69   O  SGN F   4      -8.860  41.134 176.5490  0.00  0.00     0.000 OA
ATOM     70   O  SGN F   4     -12.624  43.134 174.3170  0.00  0.00     0.000 O
ATOM     72  HD  SGN F   4     -12.775  43.901 174.6890  0.00  0.00     0.000 HD
ATOM     72   C  SGN F   4     -12.170  48.043 174.5040  0.00  0.00     0.000 C
ATOM     73   O  SGN F   4     -12.952  47.989 175.6740  0.00  0.00     0.000 O
ATOM     74   S  SGN F   4     -13.281  49.199 176.5950  0.00  0.00     0.000 S
ATOM     75   O  SGN F   4     -13.388  50.366 175.7840  0.00  0.00     0.000 OA
ATOM     76   O  SGN F   4     -14.537  48.892 177.2770  0.00  0.00     0.000 OA
ATOM     77   O  SGN F   4     -12.155  49.291 177.4400  0.00  0.00     0.000 OA
BRANCH 58 78
ATOM     78  O4  IDS F   5      -8.975  45.462 174.3960  0.00  0.00     0.000 O
BRANCH 78 82
ATOM     79  C1  IDS F   5      -6.317  45.939 172.1920  0.00  0.00     0.000 C
ATOM     80  C2  IDS F   5      -6.591  44.575 172.8090  0.00  0.00     0.000 C
ATOM     81  C3  IDS F   5      -6.714  44.651 174.3320  0.00  0.00     0.000 C
ATOM     82  C4  IDS F   5      -7.663  45.794 174.7510  0.00  0.00     0.000 C
ATOM     83  C5  IDS F   5      -7.258  47.089 174.0430  0.00  0.00     0.000 C
ATOM     84  O5  IDS F   5      -7.236  46.902 172.6430  0.00  0.00     0.000 O
ATOM     85   O  IDS F   5      -4.986  46.289 172.4770  0.00  0.00     0.000 OA
ATOM     86   O  IDS F   5      -7.814  44.109 172.3110  0.00  0.00     0.000 O
ATOM     87   S  IDS F   5      -8.361  42.644 172.3200  0.00  0.00     0.000 S
ATOM     88   O  IDS F   5      -7.821  41.994 173.4850  0.00  0.00     0.000 OA
ATOM     89   O  IDS F   5      -9.801  42.753 172.3760  0.00  0.00     0.000 OA
ATOM     90   O  IDS F   5      -7.868  42.058 171.1020  0.00  0.00     0.000 OA
ATOM     91   O  IDS F   5      -5.429  44.903 174.8650  0.00  0.00     0.000 O
ATOM     93  HD  IDS F   5      -5.488  45.748 175.0460  0.00  0.00     0.000 HD
ATOM     93   O  IDS F   5      -8.804  48.837 173.6000  0.00  0.00     0.000 OA
ATOM     94   O  IDS F   5      -8.111  48.727 175.5500  0.00  0.00     0.000 OA
ATOM     95   C  IDS F   5      -8.107  48.290 174.4150  0.00  0.00     0.000 C
ENDBRANCH 78 82
ENDBRANCH 58 78
ENDBRANCH 57 61
ENDBRANCH 41 57
ENDBRANCH 40 44
ENDBRANCH 20 40
ENDBRANCH 19 23
ENDBRANCH 1 19
TORSDOF 8
ENDMDL
MODEL 45
REMARK VINA RESULT:      -5.8      3.005     12.468
FFDIST PL LJ 2322 74 36 -1
ROOT
ATOM      1  C1  IDS F   1     -17.454  56.201 172.3490  0.00  0.00     0.000 C
ATOM      2  C2  IDS F   1     -18.733  56.655 171.6270  0.00  0.00     0.000 C
ATOM      3  C3  IDS F   1     -18.671  58.124 171.1430  0.00  0.00     0.000 C
ATOM      4  C4  IDS F   1     -17.283  58.552 170.6120  0.00  0.00     0.000 C
ATOM      5  C5  IDS F   1     -16.171  57.929 171.4630  0.00  0.00     0.000 C
ATOM      6  O5  IDS F   1     -16.350  56.555 171.5590  0.00  0.00     0.000 O
ATOM      7   S  IDS F   1     -20.307  55.659 169.6700  0.00  0.00     0.000 S
ATOM      8   O  IDS F   1     -20.760  56.988 169.3890  0.00  0.00     0.000 OA
ATOM      9   O  IDS F   1     -19.997  54.952 168.4610  0.00  0.00     0.000 OA
ATOM     10   O  IDS F   1     -21.191  54.928 170.5470  0.00  0.00     0.000 OA
ATOM     11   O  IDS F   1     -18.958  55.851 170.4860  0.00  0.00     0.000 O
ATOM     12   O  IDS F   1     -19.021  58.980 172.2290  0.00  0.00     0.000 O
ATOM     14  HD  IDS F   1     -18.724  59.776 172.3950  0.00  0.00     0.000 HD
ATOM     14   O  IDS F   1     -17.180  58.090 169.2870  0.00  0.00     0.000 O
ATOM     16  HD  IDS F   1     -16.883  58.887 169.4540  0.00  0.00     0.000 HD
ATOM     16   O  IDS F   1     -13.899  57.337 171.0680  0.00  0.00     0.000 OA
ATOM     17   O  IDS F   1     -14.399  59.327 170.6600  0.00  0.00     0.000 OA
ATOM     18   C  IDS F   1     -14.747  58.219 171.0340  0.00  0.00     0.000 C
ENDROOT
BRANCH 1 19
ATOM     19  O4  SGN F   2     -17.470  54.819 172.4690  0.00  0.00     0.000 O
BRANCH 19 23
ATOM     20  C1  SGN F   2     -18.138  51.848 175.3180  0.00  0.00     0.000 C
ATOM     21  C2  SGN F   2     -19.382  52.371 174.6160  0.00  0.00     0.000 C
ATOM     22  C3  SGN F   2     -19.022  53.006 173.2660  0.00  0.00     0.000 C
ATOM     23  C4  SGN F   2     -17.989  54.133 173.5880  0.00  0.00     0.000 C
ATOM     24  C5  SGN F   2     -16.828  53.466 174.2460  0.00  0.00     0.000 C
ATOM     25  O5  SGN F   2     -17.216  52.893 175.4530  0.00  0.00     0.000 O
ATOM     26   N  SGN F   2     -20.394  51.289 174.5640  0.00  0.00     0.000 N
ATOM     28  HD  SGN F   2     -20.927  50.972 173.9590  0.00  0.00     0.000 HD
ATOM     28   S  SGN F   2     -21.341  51.046 175.9240  0.00  0.00     0.000 S
ATOM     29   O  SGN F   2     -20.454  50.972 177.0630  0.00  0.00     0.000 OA
ATOM     30   O  SGN F   2     -22.211  52.200 175.9760  0.00  0.00     0.000 OA
ATOM     31   O  SGN F   2     -22.076  49.854 175.7050  0.00  0.00     0.000 OA
ATOM     32   O  SGN F   2     -20.206  53.558 172.7010  0.00  0.00     0.000 O
ATOM     34  HD  SGN F   2     -20.739  53.241 172.0960  0.00  0.00     0.000 HD
ATOM     34   C  SGN F   2     -15.727  54.420 174.5660  0.00  0.00     0.000 C
ATOM     35   O  SGN F   2     -16.318  55.416 175.3290  0.00  0.00     0.000 O
ATOM     36   S  SGN F   2     -15.614  56.545 176.0730  0.00  0.00     0.000 S
ATOM     37   O  SGN F   2     -16.232  57.751 175.5840  0.00  0.00     0.000 OA
ATOM     38   O  SGN F   2     -15.865  56.265 177.4700  0.00  0.00     0.000 OA
ATOM     39   O  SGN F   2     -14.198  56.461 175.7370  0.00  0.00     0.000 OA
BRANCH 20 40
ATOM     40  O4  IDS F   3     -17.563  50.777 174.6190  0.00  0.00     0.000 O
BRANCH 40 44
ATOM     41  C1  IDS F   3     -15.914  47.727 174.2020  0.00  0.00     0.000 C
ATOM     42  C2  IDS F   3     -16.545  48.068 175.5280  0.00  0.00     0.000 C
ATOM     43  C3  IDS F   3     -16.131  49.497 176.0500  0.00  0.00     0.000 C
ATOM     44  C4  IDS F   3     -16.201  50.539 174.9500  0.00  0.00     0.000 C
ATOM     45  C5  IDS F   3     -15.449  50.023 173.7230  0.00  0.00     0.000 C
ATOM     46  O5  IDS F   3     -16.027  48.818 173.2750  0.00  0.00     0.000 O
ATOM     47   O  IDS F   3     -19.140  47.720 177.4320  0.00  0.00     0.000 OA
ATOM     48   O  IDS F   3     -20.121  46.927 175.4300  0.00  0.00     0.000 OA
ATOM     49   O  IDS F   3     -18.166  45.873 176.3630  0.00  0.00     0.000 OA
ATOM     50   O  IDS F   3     -17.968  47.977 175.3930  0.00  0.00     0.000 O
ATOM     51   S  IDS F   3     -18.911  47.067 176.1940  0.00  0.00     0.000 S
ATOM     52   O  IDS F   3     -14.784  49.466 176.5090  0.00  0.00     0.000 O
ATOM     54  HD  IDS F   3     -15.402  48.860 176.4780  0.00  0.00     0.000 HD
ATOM     54   C  IDS F   3     -15.321  51.022 172.5680  0.00  0.00     0.000 C
ATOM     55   O  IDS F   3     -16.081  50.979 171.6040  0.00  0.00     0.000 OA
ATOM     56   O  IDS F   3     -14.457  51.908 172.5790  0.00  0.00     0.000 OA
BRANCH 41 57
ATOM     57  O4  SGN F   4     -14.586  47.351 174.4200  0.00  0.00     0.000 O
BRANCH 57 61
ATOM     58  C1  SGN F   4     -11.799  45.074 172.4710  0.00  0.00     0.000 C
ATOM     59  C2  SGN F   4     -11.918  46.537 172.0170  0.00  0.00     0.000 C
ATOM     60  C3  SGN F   4     -12.662  47.378 173.0400  0.00  0.00     0.000 C
ATOM     61  C4  SGN F   4     -13.995  46.698 173.3450  0.00  0.00     0.000 C
ATOM     62  C5  SGN F   4     -13.763  45.224 173.7310  0.00  0.00     0.000 C
ATOM     63  O5  SGN F   4     -13.073  44.550 172.7230  0.00  0.00     0.000 O
ATOM     64   N  SGN F   4     -10.611  47.092 171.7250  0.00  0.00     0.000 N
ATOM     66  HD  SGN F   4     -11.149  46.425 171.5990  0.00  0.00     0.000 HD
ATOM     66   S  SGN F   4     -10.014  46.866 170.2240  0.00  0.00     0.000 S
ATOM     67   O  SGN F   4      -9.727  45.448 170.1160  0.00  0.00     0.000 OA
ATOM     68   O  SGN F   4     -11.025  47.296 169.2600  0.00  0.00     0.000 OA
ATOM     69   O  SGN F   4      -8.816  47.675 170.2190  0.00  0.00     0.000 OA
ATOM     70   O  SGN F   4     -12.938  48.661 172.4970  0.00  0.00     0.000 O
ATOM     72  HD  SGN F   4     -13.476  47.994 172.3720  0.00  0.00     0.000 HD
ATOM     72   C  SGN F   4     -15.025  44.426 173.9290  0.00  0.00     0.000 C
ATOM     73   O  SGN F   4     -15.741  44.463 172.7160  0.00  0.00     0.000 O
ATOM     74   S  SGN F   4     -16.687  43.344 172.1930  0.00  0.00     0.000 S
ATOM     75   O  SGN F   4     -17.319  42.728 173.3130  0.00  0.00     0.000 OA
ATOM     76   O  SGN F   4     -17.655  43.981 171.3020  0.00  0.00     0.000 OA
ATOM     77   O  SGN F   4     -15.811  42.435 171.5640  0.00  0.00     0.000 OA
BRANCH 58 78
ATOM     78  O4  IDS F   5     -10.966  44.968 173.6000  0.00  0.00     0.000 O
BRANCH 78 82
ATOM     79  C1  IDS F   5      -8.748  44.063 176.1320  0.00  0.00     0.000 C
ATOM     80  C2  IDS F   5      -8.323  45.007 175.0160  0.00  0.00     0.000 C
ATOM     81  C3  IDS F   5      -8.625  44.428 173.6320  0.00  0.00     0.000 C
ATOM     82  C4  IDS F   5     -10.072  43.893 173.5640  0.00  0.00     0.000 C
ATOM     83  C5  IDS F   5     -10.339  42.969 174.7530  0.00  0.00     0.000 C
ATOM     84  O5  IDS F   5     -10.076  43.638 175.9690  0.00  0.00     0.000 O
ATOM     85   O  IDS F   5      -7.838  42.991 176.1670  0.00  0.00     0.000 OA
ATOM     86   O  IDS F   5      -9.058  46.192 175.1450  0.00  0.00     0.000 O
ATOM     87   S  IDS F   5      -8.747  47.589 174.5150  0.00  0.00     0.000 S
ATOM     88   O  IDS F   5      -8.070  47.354 173.2670  0.00  0.00     0.000 OA
ATOM     89   O  IDS F   5     -10.025  48.238 174.3270  0.00  0.00     0.000 OA
ATOM     90   O  IDS F   5      -7.896  48.245 175.4710  0.00  0.00     0.000 OA
ATOM     91   O  IDS F   5      -7.730  43.359 173.3970  0.00  0.00     0.000 O
ATOM     93  HD  IDS F   5      -8.244  42.678 173.5440  0.00  0.00     0.000 HD
ATOM     93   O  IDS F   5     -12.519  42.618 175.6300  0.00  0.00     0.000 OA
ATOM     94   O  IDS F   5     -12.078  41.589 173.8850  0.00  0.00     0.000 OA
ATOM     95   C  IDS F   5     -11.727  42.356 174.7610  0.00  0.00     0.000 C
ENDBRANCH 78 82
ENDBRANCH 58 78
ENDBRANCH 57 61
ENDBRANCH 41 57
ENDBRANCH 40 44
ENDBRANCH 20 40
ENDBRANCH 19 23
ENDBRANCH 1 19
TORSDOF 8
ENDMDL
MODEL 46
REMARK VINA RESULT:      -5.7      4.701     10.921
FFDIST PL LJ 2322 74 36 -1
ROOT
ATOM      1  C1  IDS F   1     -16.954  58.098 169.0370  0.00  0.00     0.000 C
ATOM      2  C2  IDS F   1     -16.069  57.737 167.8320  0.00  0.00     0.000 C
ATOM      3  C3  IDS F   1     -16.882  57.398 166.5590  0.00  0.00     0.000 C
ATOM      4  C4  IDS F   1     -18.141  58.275 166.3660  0.00  0.00     0.000 C
ATOM      5  C5  IDS F   1     -18.818  58.540 167.7150  0.00  0.00     0.000 C
ATOM      6  O5  IDS F   1     -17.898  59.049 168.6230  0.00  0.00     0.000 O
ATOM      7   S  IDS F   1     -13.893  58.808 166.6400  0.00  0.00     0.000 S
ATOM      8   O  IDS F   1     -14.250  58.130 165.4310  0.00  0.00     0.000 OA
ATOM      9   O  IDS F   1     -13.518  60.167 166.3810  0.00  0.00     0.000 OA
ATOM     10   O  IDS F   1     -12.922  58.090 167.4320  0.00  0.00     0.000 OA
ATOM     11   O  IDS F   1     -15.224  58.823 167.5080  0.00  0.00     0.000 O
ATOM     12   O  IDS F   1     -17.289  56.033 166.6250  0.00  0.00     0.000 O
ATOM     14  HD  IDS F   1     -18.015  55.679 166.3120  0.00  0.00     0.000 HD
ATOM     14   O  IDS F   1     -17.722  59.492 165.7990  0.00  0.00     0.000 O
ATOM     16  HD  IDS F   1     -18.448  59.138 165.4860  0.00  0.00     0.000 HD
ATOM     16   O  IDS F   1     -20.216  60.267 168.5700  0.00  0.00     0.000 OA
ATOM     17   O  IDS F   1     -20.895  59.335 166.8250  0.00  0.00     0.000 OA
ATOM     18   C  IDS F   1     -20.044  59.430 167.6940  0.00  0.00     0.000 C
ENDROOT
BRANCH 1 19
ATOM     19  O4  SGN F   2     -16.163  58.675 170.0190  0.00  0.00     0.000 O
BRANCH 19 23
ATOM     20  C1  SGN F   2     -16.570  56.472 173.5370  0.00  0.00     0.000 C
ATOM     21  C2  SGN F   2     -17.515  57.654 173.3940  0.00  0.00     0.000 C
ATOM     22  C3  SGN F   2     -17.687  58.044 171.9190  0.00  0.00     0.000 C
ATOM     23  C4  SGN F   2     -16.249  58.350 171.3900  0.00  0.00     0.000 C
ATOM     24  C5  SGN F   2     -15.456  57.099 171.5740  0.00  0.00     0.000 C
ATOM     25  O5  SGN F   2     -15.349  56.787 172.9260  0.00  0.00     0.000 O
ATOM     26   N  SGN F   2     -18.770  57.357 174.1260  0.00  0.00     0.000 N
ATOM     28  HD  SGN F   2     -19.615  57.440 173.9600  0.00  0.00     0.000 HD
ATOM     28   S  SGN F   2     -18.784  57.626 175.7800  0.00  0.00     0.000 S
ATOM     29   O  SGN F   2     -17.610  56.990 176.3340  0.00  0.00     0.000 OA
ATOM     30   O  SGN F   2     -18.749  59.065 175.9180  0.00  0.00     0.000 OA
ATOM     31   O  SGN F   2     -20.000  57.089 176.2720  0.00  0.00     0.000 OA
ATOM     32   O  SGN F   2     -18.504  59.207 171.8550  0.00  0.00     0.000 O
ATOM     34  HD  SGN F   2     -19.350  59.290 171.6880  0.00  0.00     0.000 HD
ATOM     34   C  SGN F   2     -14.062  57.226 171.0580  0.00  0.00     0.000 C
ATOM     35   O  SGN F   2     -13.535  58.335 171.7030  0.00  0.00     0.000 O
ATOM     36   S  SGN F   2     -12.085  58.808 171.6820  0.00  0.00     0.000 S
ATOM     37   O  SGN F   2     -12.151  60.176 171.2340  0.00  0.00     0.000 OA
ATOM     38   O  SGN F   2     -11.635  58.644 173.0470  0.00  0.00     0.000 OA
ATOM     39   O  SGN F   2     -11.367  57.944 170.7540  0.00  0.00     0.000 OA
BRANCH 20 40
ATOM     40  O4  IDS F   3     -17.111  55.307 172.9730  0.00  0.00     0.000 O
BRANCH 40 44
ATOM     41  C1  IDS F   3     -18.894  52.347 172.4700  0.00  0.00     0.000 C
ATOM     42  C2  IDS F   3     -19.467  53.433 173.3460  0.00  0.00     0.000 C
ATOM     43  C3  IDS F   3     -18.441  53.947 174.4280  0.00  0.00     0.000 C
ATOM     44  C4  IDS F   3     -17.064  54.176 173.8330  0.00  0.00     0.000 C
ATOM     45  C5  IDS F   3     -16.649  52.936 173.0420  0.00  0.00     0.000 C
ATOM     46  O5  IDS F   3     -17.577  52.688 172.0110  0.00  0.00     0.000 O
ATOM     47   O  IDS F   3     -21.472  55.969 173.5080  0.00  0.00     0.000 OA
ATOM     48   O  IDS F   3     -21.410  55.779 171.1500  0.00  0.00     0.000 OA
ATOM     49   O  IDS F   3     -22.151  53.948 172.5290  0.00  0.00     0.000 OA
ATOM     50   O  IDS F   3     -19.896  54.513 172.5110  0.00  0.00     0.000 O
ATOM     51   S  IDS F   3     -21.317  55.087 172.4080  0.00  0.00     0.000 S
ATOM     52   O  IDS F   3     -18.296  52.968 175.4510  0.00  0.00     0.000 O
ATOM     54  HD  IDS F   3     -18.957  53.170 174.9300  0.00  0.00     0.000 HD
ATOM     54   C  IDS F   3     -15.221  52.967 172.4870  0.00  0.00     0.000 C
ATOM     55   O  IDS F   3     -15.000  53.274 171.3180  0.00  0.00     0.000 OA
ATOM     56   O  IDS F   3     -14.248  52.693 173.2010  0.00  0.00     0.000 OA
BRANCH 41 57
ATOM     57  O4  SGN F   4     -18.914  51.142 173.1790  0.00  0.00     0.000 O
BRANCH 57 61
ATOM     58  C1  SGN F   4     -19.573  47.203 172.2890  0.00  0.00     0.000 C
ATOM     59  C2  SGN F   4     -18.140  47.716 172.0770  0.00  0.00     0.000 C
ATOM     60  C3  SGN F   4     -17.909  49.033 172.7980  0.00  0.00     0.000 C
ATOM     61  C4  SGN F   4     -19.003  50.012 172.3760  0.00  0.00     0.000 C
ATOM     62  C5  SGN F   4     -20.391  49.373 172.5750  0.00  0.00     0.000 C
ATOM     63  O5  SGN F   4     -20.492  48.173 171.8710  0.00  0.00     0.000 O
ATOM     64   N  SGN F   4     -17.171  46.715 172.4780  0.00  0.00     0.000 N
ATOM     66  HD  SGN F   4     -17.891  46.871 172.0230  0.00  0.00     0.000 HD
ATOM     66   S  SGN F   4     -16.739  45.597 171.3720  0.00  0.00     0.000 S
ATOM     67   O  SGN F   4     -17.908  44.763 171.1660  0.00  0.00     0.000 OA
ATOM     68   O  SGN F   4     -16.341  46.293 170.1500  0.00  0.00     0.000 OA
ATOM     69   O  SGN F   4     -15.660  44.888 172.0220  0.00  0.00     0.000 OA
ATOM     70   O  SGN F   4     -16.657  49.579 172.4090  0.00  0.00     0.000 O
ATOM     72  HD  SGN F   4     -17.377  49.736 171.9540  0.00  0.00     0.000 HD
ATOM     72   C  SGN F   4     -21.538  50.210 172.0700  0.00  0.00     0.000 C
ATOM     73   O  SGN F   4     -21.334  50.414 170.6910  0.00  0.00     0.000 O
ATOM     74   S  SGN F   4     -22.458  50.605 169.6320  0.00  0.00     0.000 S
ATOM     75   O  SGN F   4     -23.544  51.293 170.2460  0.00  0.00     0.000 OA
ATOM     76   O  SGN F   4     -21.882  51.371 168.5270  0.00  0.00     0.000 OA
ATOM     77   O  SGN F   4     -22.835  49.285 169.3050  0.00  0.00     0.000 OA
BRANCH 58 78
ATOM     78  O4  IDS F   5     -19.780  46.842 173.6330  0.00  0.00     0.000 O
BRANCH 78 82
ATOM     79  C1  IDS F   5     -20.880  45.504 176.6580  0.00  0.00     0.000 C
ATOM     80  C2  IDS F   5     -19.460  45.268 176.1650  0.00  0.00     0.000 C
ATOM     81  C3  IDS F   5     -19.434  44.733 174.7310  0.00  0.00     0.000 C
ATOM     82  C4  IDS F   5     -20.345  45.576 173.8140  0.00  0.00     0.000 C
ATOM     83  C5  IDS F   5     -21.728  45.722 174.4520  0.00  0.00     0.000 C
ATOM     84  O5  IDS F   5     -21.619  46.277 175.7470  0.00  0.00     0.000 O
ATOM     85   O  IDS F   5     -21.470  44.252 176.9060  0.00  0.00     0.000 OA
ATOM     86   O  IDS F   5     -18.788  46.497 176.1680  0.00  0.00     0.000 O
ATOM     87   S  IDS F   5     -17.246  46.749 176.1220  0.00  0.00     0.000 S
ATOM     88   O  IDS F   5     -16.656  45.666 175.3810  0.00  0.00     0.000 OA
ATOM     89   O  IDS F   5     -17.066  48.022 175.4620  0.00  0.00     0.000 OA
ATOM     90   O  IDS F   5     -16.830  46.744 177.5000  0.00  0.00     0.000 OA
ATOM     91   O  IDS F   5     -19.907  43.401 174.7500  0.00  0.00     0.000 O
ATOM     93  HD  IDS F   5     -20.713  43.508 174.4540  0.00  0.00     0.000 HD
ATOM     93   O  IDS F   5     -23.158  47.561 173.9860  0.00  0.00     0.000 OA
ATOM     94   O  IDS F   5     -23.089  46.088 172.5290  0.00  0.00     0.000 OA
ATOM     95   C  IDS F   5     -22.718  46.505 173.6100  0.00  0.00     0.000 C
ENDBRANCH 78 82
ENDBRANCH 58 78
ENDBRANCH 57 61
ENDBRANCH 41 57
ENDBRANCH 40 44
ENDBRANCH 20 40
ENDBRANCH 19 23
ENDBRANCH 1 19
TORSDOF 8
ENDMDL
MODEL 47
REMARK VINA RESULT:      -5.7      4.036      6.260
FFDIST PL LJ 2322 74 36 -1
ROOT
ATOM      1  C1  IDS F   1      -7.811  47.899 172.3330  0.00  0.00     0.000 C
ATOM      2  C2  IDS F   1      -6.788  46.770 172.5370  0.00  0.00     0.000 C
ATOM      3  C3  IDS F   1      -5.321  47.245 172.4040  0.00  0.00     0.000 C
ATOM      4  C4  IDS F   1      -5.060  48.649 172.9990  0.00  0.00     0.000 C
ATOM      5  C5  IDS F   1      -6.245  49.578 172.7110  0.00  0.00     0.000 C
ATOM      6  O5  IDS F   1      -7.431  48.989 173.1300  0.00  0.00     0.000 O
ATOM      7   S  IDS F   1      -6.408  44.809 174.3560  0.00  0.00     0.000 S
ATOM      8   O  IDS F   1      -5.024  44.770 173.9910  0.00  0.00     0.000 OA
ATOM      9   O  IDS F   1      -6.569  44.784 175.7810  0.00  0.00     0.000 OA
ATOM     10   O  IDS F   1      -7.207  43.817 173.6750  0.00  0.00     0.000 OA
ATOM     11   O  IDS F   1      -6.930  46.213 173.8280  0.00  0.00     0.000 O
ATOM     12   O  IDS F   1      -4.969  47.269 171.0230  0.00  0.00     0.000 O
ATOM     14  HD  IDS F   1      -4.426  47.811 170.6220  0.00  0.00     0.000 HD
ATOM     14   O  IDS F   1      -4.907  48.494 174.3890  0.00  0.00     0.000 O
ATOM     16  HD  IDS F   1      -4.363  49.036 173.9870  0.00  0.00     0.000 HD
ATOM     16   O  IDS F   1      -7.143  51.513 173.7680  0.00  0.00     0.000 OA
ATOM     17   O  IDS F   1      -5.120  51.624 173.2470  0.00  0.00     0.000 OA
ATOM     18   C  IDS F   1      -6.157  50.982 173.2760  0.00  0.00     0.000 C
ENDROOT
BRANCH 1 19
ATOM     19  O4  SGN F   2      -9.055  47.464 172.7650  0.00  0.00     0.000 O
BRANCH 19 23
ATOM     20  C1  SGN F   2     -12.340  45.573 171.0250  0.00  0.00     0.000 C
ATOM     21  C2  SGN F   2     -11.543  44.727 172.0050  0.00  0.00     0.000 C
ATOM     22  C3  SGN F   2     -10.746  45.613 172.9740  0.00  0.00     0.000 C
ATOM     23  C4  SGN F   2      -9.840  46.515 172.0760  0.00  0.00     0.000 C
ATOM     24  C5  SGN F   2     -10.760  47.294 171.1950  0.00  0.00     0.000 C
ATOM     25  O5  SGN F   2     -11.467  46.439 170.3540  0.00  0.00     0.000 O
ATOM     26   N  SGN F   2     -12.452  43.743 172.6410  0.00  0.00     0.000 N
ATOM     28  HD  SGN F   2     -12.588  43.462 173.4480  0.00  0.00     0.000 HD
ATOM     28   S  SGN F   2     -12.786  42.336 171.7950  0.00  0.00     0.000 S
ATOM     29   O  SGN F   2     -13.168  42.716 170.4540  0.00  0.00     0.000 OA
ATOM     30   O  SGN F   2     -11.550  41.588 171.8250  0.00  0.00     0.000 OA
ATOM     31   O  SGN F   2     -13.814  41.665 172.5050  0.00  0.00     0.000 OA
ATOM     32   O  SGN F   2      -9.953  44.771 173.8020  0.00  0.00     0.000 O
ATOM     34  HD  SGN F   2     -10.089  44.490 174.6090  0.00  0.00     0.000 HD
ATOM     34   C  SGN F   2     -10.031  48.249 170.3100  0.00  0.00     0.000 C
ATOM     35   O  SGN F   2      -9.105  47.476 169.6250  0.00  0.00     0.000 O
ATOM     36   S  SGN F   2      -8.222  47.915 168.4620  0.00  0.00     0.000 S
ATOM     37   O  SGN F   2      -6.879  47.608 168.8830  0.00  0.00     0.000 OA
ATOM     38   O  SGN F   2      -8.694  47.134 167.3400  0.00  0.00     0.000 OA
ATOM     39   O  SGN F   2      -8.442  49.344 168.2740  0.00  0.00     0.000 OA
BRANCH 20 40
ATOM     40  O4  IDS F   3     -13.348  46.301 171.6730  0.00  0.00     0.000 O
BRANCH 40 44
ATOM     41  C1  IDS F   3     -16.319  47.280 173.2240  0.00  0.00     0.000 C
ATOM     42  C2  IDS F   3     -15.779  45.888 173.4380  0.00  0.00     0.000 C
ATOM     43  C3  IDS F   3     -15.413  45.163 172.0880  0.00  0.00     0.000 C
ATOM     44  C4  IDS F   3     -14.649  46.076 171.1470  0.00  0.00     0.000 C
ATOM     45  C5  IDS F   3     -15.398  47.403 171.0220  0.00  0.00     0.000 C
ATOM     46  O5  IDS F   3     -15.515  48.012 172.2870  0.00  0.00     0.000 O
ATOM     47   O  IDS F   3     -14.057  43.949 175.3750  0.00  0.00     0.000 OA
ATOM     48   O  IDS F   3     -13.418  46.005 176.3560  0.00  0.00     0.000 OA
ATOM     49   O  IDS F   3     -15.732  45.345 176.2390  0.00  0.00     0.000 OA
ATOM     50   O  IDS F   3     -14.631  45.971 174.2890  0.00  0.00     0.000 O
ATOM     51   S  IDS F   3     -14.444  45.285 175.6510  0.00  0.00     0.000 S
ATOM     52   O  IDS F   3     -16.607  44.776 171.4140  0.00  0.00     0.000 O
ATOM     54  HD  IDS F   3     -16.419  44.876 172.2540  0.00  0.00     0.000 HD
ATOM     54   C  IDS F   3     -14.814  48.386 170.0020  0.00  0.00     0.000 C
ATOM     55   O  IDS F   3     -14.084  49.309 170.3540  0.00  0.00     0.000 OA
ATOM     56   O  IDS F   3     -15.051  48.272 168.7920  0.00  0.00     0.000 OA
BRANCH 41 57
ATOM     57  O4  SGN F   4     -17.654  47.186 172.8190  0.00  0.00     0.000 O
BRANCH 57 61
ATOM     58  C1  SGN F   4     -20.893  49.340 174.0910  0.00  0.00     0.000 C
ATOM     59  C2  SGN F   4     -20.562  49.432 172.5930  0.00  0.00     0.000 C
ATOM     60  C3  SGN F   4     -19.628  48.315 172.1610  0.00  0.00     0.000 C
ATOM     61  C4  SGN F   4     -18.409  48.322 173.0810  0.00  0.00     0.000 C
ATOM     62  C5  SGN F   4     -18.857  48.288 174.5550  0.00  0.00     0.000 C
ATOM     63  O5  SGN F   4     -19.710  49.355 174.8400  0.00  0.00     0.000 O
ATOM     64   N  SGN F   4     -21.776  49.444 171.7990  0.00  0.00     0.000 N
ATOM     66  HD  SGN F   4     -21.364  49.783 172.4810  0.00  0.00     0.000 HD
ATOM     66   S  SGN F   4     -22.494  50.886 171.5420  0.00  0.00     0.000 S
ATOM     67   O  SGN F   4     -23.016  51.309 172.8280  0.00  0.00     0.000 OA
ATOM     68   O  SGN F   4     -21.487  51.812 171.0280  0.00  0.00     0.000 OA
ATOM     69   O  SGN F   4     -23.540  50.570 170.5960  0.00  0.00     0.000 OA
ATOM     70   O  SGN F   4     -19.178  48.552 170.8350  0.00  0.00     0.000 O
ATOM     72  HD  SGN F   4     -18.766  48.891 171.5170  0.00  0.00     0.000 HD
ATOM     72   C  SGN F   4     -17.734  48.421 175.5500  0.00  0.00     0.000 C
ATOM     73   O  SGN F   4     -17.098  49.654 175.3050  0.00  0.00     0.000 O
ATOM     74   S  SGN F   4     -16.384  50.529 176.3750  0.00  0.00     0.000 S
ATOM     75   O  SGN F   4     -15.794  49.665 177.3430  0.00  0.00     0.000 OA
ATOM     76   O  SGN F   4     -15.381  51.330 175.6760  0.00  0.00     0.000 OA
ATOM     77   O  SGN F   4     -17.435  51.270 176.9550  0.00  0.00     0.000 OA
BRANCH 58 78
ATOM     78  O4  IDS F   5     -21.660  48.192 174.3640  0.00  0.00     0.000 O
BRANCH 78 82
ATOM     79  C1  IDS F   5     -23.755  45.729 175.6650  0.00  0.00     0.000 C
ATOM     80  C2  IDS F   5     -24.117  46.474 174.3880  0.00  0.00     0.000 C
ATOM     81  C3  IDS F   5     -24.045  47.991 174.5710  0.00  0.00     0.000 C
ATOM     82  C4  IDS F   5     -22.721  48.401 175.2510  0.00  0.00     0.000 C
ATOM     83  C5  IDS F   5     -22.504  47.560 176.5100  0.00  0.00     0.000 C
ATOM     84  O5  IDS F   5     -22.537  46.183 176.1980  0.00  0.00     0.000 O
ATOM     85   O  IDS F   5     -24.824  45.867 176.5680  0.00  0.00     0.000 OA
ATOM     86   O  IDS F   5     -23.185  46.125 173.4020  0.00  0.00     0.000 O
ATOM     87   S  IDS F   5     -23.314  46.298 171.8530  0.00  0.00     0.000 S
ATOM     88   O  IDS F   5     -24.134  47.457 171.6200  0.00  0.00     0.000 OA
ATOM     89   O  IDS F   5     -21.969  46.473 171.3550  0.00  0.00     0.000 OA
ATOM     90   O  IDS F   5     -23.951  45.090 171.3980  0.00  0.00     0.000 OA
ATOM     91   O  IDS F   5     -25.125  48.386 175.3940  0.00  0.00     0.000 O
ATOM     93  HD  IDS F   5     -24.721  48.504 176.1510  0.00  0.00     0.000 HD
ATOM     93   O  IDS F   5     -20.343  47.121 177.3920  0.00  0.00     0.000 OA
ATOM     94   O  IDS F   5     -21.108  49.004 177.7950  0.00  0.00     0.000 OA
ATOM     95   C  IDS F   5     -21.244  47.911 177.2790  0.00  0.00     0.000 C
ENDBRANCH 78 82
ENDBRANCH 58 78
ENDBRANCH 57 61
ENDBRANCH 41 57
ENDBRANCH 40 44
ENDBRANCH 20 40
ENDBRANCH 19 23
ENDBRANCH 1 19
TORSDOF 8
ENDMDL
MODEL 48
REMARK VINA RESULT:      -5.7      5.233      8.338
FFDIST PL LJ 2322 74 36 -1
ROOT
ATOM      1  C1  IDS F   1      -8.893  46.662 170.4700  0.00  0.00     0.000 C
ATOM      2  C2  IDS F   1      -8.550  45.647 169.3660  0.00  0.00     0.000 C
ATOM      3  C3  IDS F   1      -7.494  46.172 168.3630  0.00  0.00     0.000 C
ATOM      4  C4  IDS F   1      -6.378  47.021 169.0140  0.00  0.00     0.000 C
ATOM      5  C5  IDS F   1      -6.960  47.909 170.1190  0.00  0.00     0.000 C
ATOM      6  O5  IDS F   1      -7.695  47.143 171.0160  0.00  0.00     0.000 O
ATOM      7   S  IDS F   1      -7.910  43.023 169.2820  0.00  0.00     0.000 S
ATOM      8   O  IDS F   1      -7.266  43.245 168.0230  0.00  0.00     0.000 OA
ATOM      9   O  IDS F   1      -7.102  42.209 170.1420  0.00  0.00     0.000 OA
ATOM     10   O  IDS F   1      -9.267  42.544 169.1520  0.00  0.00     0.000 OA
ATOM     11   O  IDS F   1      -8.029  44.465 169.9390  0.00  0.00     0.000 O
ATOM     12   O  IDS F   1      -8.151  46.967 167.3800  0.00  0.00     0.000 O
ATOM     14  HD  IDS F   1      -7.842  47.660 166.9630  0.00  0.00     0.000 HD
ATOM     14   O  IDS F   1      -5.441  46.131 169.5670  0.00  0.00     0.000 O
ATOM     16  HD  IDS F   1      -5.131  46.824 169.1510  0.00  0.00     0.000 HD
ATOM     16   O  IDS F   1      -6.084  48.903 172.0970  0.00  0.00     0.000 OA
ATOM     17   O  IDS F   1      -5.065  49.359 170.3280  0.00  0.00     0.000 OA
ATOM     18   C  IDS F   1      -5.976  48.769 170.8860  0.00  0.00     0.000 C
ENDROOT
BRANCH 1 19
ATOM     19  O4  SGN F   2      -9.594  46.013 171.4760  0.00  0.00     0.000 O
BRANCH 19 23
ATOM     20  C1  SGN F   2     -11.335  47.015 175.1310  0.00  0.00     0.000 C
ATOM     21  C2  SGN F   2     -10.709  48.172 174.3670  0.00  0.00     0.000 C
ATOM     22  C3  SGN F   2     -10.606  47.847 172.8700  0.00  0.00     0.000 C
ATOM     23  C4  SGN F   2      -9.765  46.534 172.7770  0.00  0.00     0.000 C
ATOM     24  C5  SGN F   2     -10.513  45.498 173.5470  0.00  0.00     0.000 C
ATOM     25  O5  SGN F   2     -10.591  45.853 174.8910  0.00  0.00     0.000 O
ATOM     26   N  SGN F   2     -11.438  49.418 174.7010  0.00  0.00     0.000 N
ATOM     28  HD  SGN F   2     -11.753  50.088 174.2510  0.00  0.00     0.000 HD
ATOM     28   S  SGN F   2     -11.015  50.208 176.1170  0.00  0.00     0.000 S
ATOM     29   O  SGN F   2     -11.006  49.225 177.1770  0.00  0.00     0.000 OA
ATOM     30   O  SGN F   2      -9.701  50.750 175.8570  0.00  0.00     0.000 OA
ATOM     31   O  SGN F   2     -11.970  51.238 176.3130  0.00  0.00     0.000 OA
ATOM     32   O  SGN F   2      -9.932  48.921 172.2240  0.00  0.00     0.000 O
ATOM     34  HD  SGN F   2     -10.246  49.591 171.7740  0.00  0.00     0.000 HD
ATOM     34   C  SGN F   2      -9.850  44.162 173.5010  0.00  0.00     0.000 C
ATOM     35   O  SGN F   2      -8.557  44.382 173.9510  0.00  0.00     0.000 O
ATOM     36   S  SGN F   2      -7.504  43.328 174.2750  0.00  0.00     0.000 S
ATOM     37   O  SGN F   2      -6.363  43.687 173.4710  0.00  0.00     0.000 OA
ATOM     38   O  SGN F   2      -7.297  43.454 175.7010  0.00  0.00     0.000 OA
ATOM     39   O  SGN F   2      -8.067  42.034 173.9090  0.00  0.00     0.000 OA
BRANCH 20 40
ATOM     40  O4  IDS F   3     -12.675  46.821 174.7660  0.00  0.00     0.000 O
BRANCH 40 44
ATOM     41  C1  IDS F   3     -16.164  46.762 174.6300  0.00  0.00     0.000 C
ATOM     42  C2  IDS F   3     -15.449  47.998 175.1160  0.00  0.00     0.000 C
ATOM     43  C3  IDS F   3     -14.370  47.682 176.2220  0.00  0.00     0.000 C
ATOM     44  C4  IDS F   3     -13.524  46.478 175.8540  0.00  0.00     0.000 C
ATOM     45  C5  IDS F   3     -14.442  45.323 175.4550  0.00  0.00     0.000 C
ATOM     46  O5  IDS F   3     -15.239  45.699 174.3540  0.00  0.00     0.000 O
ATOM     47   O  IDS F   3     -14.317  50.926 174.3270  0.00  0.00     0.000 OA
ATOM     48   O  IDS F   3     -14.686  50.139 172.1260  0.00  0.00     0.000 OA
ATOM     49   O  IDS F   3     -16.485  50.263 173.7240  0.00  0.00     0.000 OA
ATOM     50   O  IDS F   3     -14.839  48.643 173.9930  0.00  0.00     0.000 O
ATOM     51   S  IDS F   3     -15.097  50.076 173.5030  0.00  0.00     0.000 S
ATOM     52   O  IDS F   3     -15.022  47.373 177.4490  0.00  0.00     0.000 O
ATOM     54  HD  IDS F   3     -15.246  47.880 176.7840  0.00  0.00     0.000 HD
ATOM     54   C  IDS F   3     -13.734  43.993 175.1780  0.00  0.00     0.000 C
ATOM     55   O  IDS F   3     -13.478  43.636 174.0310  0.00  0.00     0.000 OA
ATOM     56   O  IDS F   3     -13.390  43.245 176.1030  0.00  0.00     0.000 OA
BRANCH 41 57
ATOM     57  O4  SGN F   4     -17.125  46.399 175.5770  0.00  0.00     0.000 O
BRANCH 57 61
ATOM     58  C1  SGN F   4     -20.799  44.669 175.0680  0.00  0.00     0.000 C
ATOM     59  C2  SGN F   4     -19.768  43.852 175.8630  0.00  0.00     0.000 C
ATOM     60  C3  SGN F   4     -18.614  44.721 176.3330  0.00  0.00     0.000 C
ATOM     61  C4  SGN F   4     -18.043  45.459 175.1240  0.00  0.00     0.000 C
ATOM     62  C5  SGN F   4     -19.169  46.192 174.3690  0.00  0.00     0.000 C
ATOM     63  O5  SGN F   4     -20.172  45.301 173.9870  0.00  0.00     0.000 O
ATOM     64   N  SGN F   4     -20.402  43.167 176.9730  0.00  0.00     0.000 N
ATOM     66  HD  SGN F   4     -20.439  43.342 176.1260  0.00  0.00     0.000 HD
ATOM     66   S  SGN F   4     -21.062  41.706 176.6790  0.00  0.00     0.000 S
ATOM     67   O  SGN F   4     -22.212  41.948 175.8290  0.00  0.00     0.000 OA
ATOM     68   O  SGN F   4     -20.058  40.875 176.0180  0.00  0.00     0.000 OA
ATOM     69   O  SGN F   4     -21.435  41.240 177.9960  0.00  0.00     0.000 OA
ATOM     70   O  SGN F   4     -17.587  43.902 176.8740  0.00  0.00     0.000 O
ATOM     72  HD  SGN F   4     -17.624  44.077 176.0260  0.00  0.00     0.000 HD
ATOM     72   C  SGN F   4     -18.732  46.849 173.0860  0.00  0.00     0.000 C
ATOM     73   O  SGN F   4     -18.218  45.837 172.2500  0.00  0.00     0.000 O
ATOM     74   S  SGN F   4     -18.260  45.846 170.6950  0.00  0.00     0.000 S
ATOM     75   O  SGN F   4     -18.141  47.194 170.2480  0.00  0.00     0.000 OA
ATOM     76   O  SGN F   4     -17.149  45.017 170.2290  0.00  0.00     0.000 OA
ATOM     77   O  SGN F   4     -19.542  45.341 170.3940  0.00  0.00     0.000 OA
BRANCH 58 78
ATOM     78  O4  IDS F   5     -21.450  45.598 175.9010  0.00  0.00     0.000 O
BRANCH 78 82
ATOM     79  C1  IDS F   5     -23.633  47.738 177.5760  0.00  0.00     0.000 C
ATOM     80  C2  IDS F   5     -23.660  46.236 177.8240  0.00  0.00     0.000 C
ATOM     81  C3  IDS F   5     -23.766  45.444 176.5190  0.00  0.00     0.000 C
ATOM     82  C4  IDS F   5     -22.738  45.948 175.4840  0.00  0.00     0.000 C
ATOM     83  C5  IDS F   5     -22.836  47.470 175.3570  0.00  0.00     0.000 C
ATOM     84  O5  IDS F   5     -22.666  48.084 176.6180  0.00  0.00     0.000 O
ATOM     85   O  IDS F   5     -24.927  48.143 177.2070  0.00  0.00     0.000 OA
ATOM     86   O  IDS F   5     -22.455  45.875 178.4390  0.00  0.00     0.000 O
ATOM     87   S  IDS F   5     -22.135  44.565 179.2310  0.00  0.00     0.000 S
ATOM     88   O  IDS F   5     -22.939  43.515 178.6640  0.00  0.00     0.000 OA
ATOM     89   O  IDS F   5     -20.721  44.324 179.0550  0.00  0.00     0.000 OA
ATOM     90   O  IDS F   5     -22.512  44.854 180.5900  0.00  0.00     0.000 OA
ATOM     91   O  IDS F   5     -25.068  45.626 175.9990  0.00  0.00     0.000 O
ATOM     93  HD  IDS F   5     -24.916  46.202 175.3710  0.00  0.00     0.000 HD
ATOM     93   O  IDS F   5     -21.002  48.810 174.6620  0.00  0.00     0.000 OA
ATOM     94   O  IDS F   5     -22.000  47.804 173.1490  0.00  0.00     0.000 OA
ATOM     95   C  IDS F   5     -21.890  48.067 174.3320  0.00  0.00     0.000 C
ENDBRANCH 78 82
ENDBRANCH 58 78
ENDBRANCH 57 61
ENDBRANCH 41 57
ENDBRANCH 40 44
ENDBRANCH 20 40
ENDBRANCH 19 23
ENDBRANCH 1 19
TORSDOF 8
ENDMDL
MODEL 49
REMARK VINA RESULT:      -5.7      3.333      7.275
FFDIST PL LJ 2322 74 36 -1
ROOT
ATOM      1  C1  IDS F   1     -17.227  44.236 172.9780  0.00  0.00     0.000 C
ATOM      2  C2  IDS F   1     -18.108  44.058 174.2260  0.00  0.00     0.000 C
ATOM      3  C3  IDS F   1     -19.616  43.943 173.8950  0.00  0.00     0.000 C
ATOM      4  C4  IDS F   1     -19.917  43.140 172.6080  0.00  0.00     0.000 C
ATOM      5  C5  IDS F   1     -18.871  43.448 171.5310  0.00  0.00     0.000 C
ATOM      6  O5  IDS F   1     -17.590  43.262 172.0370  0.00  0.00     0.000 O
ATOM      7   S  IDS F   1     -18.060  42.480 176.4180  0.00  0.00     0.000 S
ATOM      8   O  IDS F   1     -19.471  42.672 176.5600  0.00  0.00     0.000 OA
ATOM      9   O  IDS F   1     -17.705  41.102 176.5960  0.00  0.00     0.000 OA
ATOM     10   O  IDS F   1     -17.276  43.380 177.2320  0.00  0.00     0.000 OA
ATOM     11   O  IDS F   1     -17.742  42.879 174.9140  0.00  0.00     0.000 O
ATOM     12   O  IDS F   1     -20.154  45.254 173.7450  0.00  0.00     0.000 O
ATOM     14  HD  IDS F   1     -20.793  45.510 173.2190  0.00  0.00     0.000 HD
ATOM     14   O  IDS F   1     -19.865  41.775 172.9420  0.00  0.00     0.000 O
ATOM     16  HD  IDS F   1     -20.504  42.031 172.4170  0.00  0.00     0.000 HD
ATOM     16   O  IDS F   1     -18.012  42.265 169.6520  0.00  0.00     0.000 OA
ATOM     17   O  IDS F   1     -20.089  42.511 169.6940  0.00  0.00     0.000 OA
ATOM     18   C  IDS F   1     -19.005  42.696 170.2220  0.00  0.00     0.000 C
ENDROOT
BRANCH 1 19
ATOM     19  O4  SGN F   2     -15.902  44.023 173.3280  0.00  0.00     0.000 O
BRANCH 19 23
ATOM     20  C1  SGN F   2     -13.851  47.627 172.8820  0.00  0.00     0.000 C
ATOM     21  C2  SGN F   2     -13.755  46.670 171.7030  0.00  0.00     0.000 C
ATOM     22  C3  SGN F   2     -14.928  45.680 171.7040  0.00  0.00     0.000 C
ATOM     23  C4  SGN F   2     -14.865  44.949 173.0840  0.00  0.00     0.000 C
ATOM     24  C5  SGN F   2     -14.995  46.007 174.1280  0.00  0.00     0.000 C
ATOM     25  O5  SGN F   2     -13.916  46.885 174.0680  0.00  0.00     0.000 O
ATOM     26   N  SGN F   2     -13.585  47.458 170.4590  0.00  0.00     0.000 N
ATOM     28  HD  SGN F   2     -13.931  47.438 169.6650  0.00  0.00     0.000 HD
ATOM     28   S  SGN F   2     -12.040  47.983 170.0770  0.00  0.00     0.000 S
ATOM     29   O  SGN F   2     -11.492  48.614 171.2570  0.00  0.00     0.000 OA
ATOM     30   O  SGN F   2     -11.324  46.781 169.7120  0.00  0.00     0.000 OA
ATOM     31   O  SGN F   2     -12.167  48.865 168.9750  0.00  0.00     0.000 OA
ATOM     32   O  SGN F   2     -14.735  44.757 170.6390  0.00  0.00     0.000 O
ATOM     34  HD  SGN F   2     -15.081  44.737 169.8450  0.00  0.00     0.000 HD
ATOM     34   C  SGN F   2     -15.007  45.447 175.5110  0.00  0.00     0.000 C
ATOM     35   O  SGN F   2     -13.847  44.691 175.6070  0.00  0.00     0.000 O
ATOM     36   S  SGN F   2     -13.272  44.045 176.8630  0.00  0.00     0.000 S
ATOM     37   O  SGN F   2     -13.123  42.652 176.5260  0.00  0.00     0.000 OA
ATOM     38   O  SGN F   2     -12.026  44.746 177.0870  0.00  0.00     0.000 OA
ATOM     39   O  SGN F   2     -14.233  44.267 177.9360  0.00  0.00     0.000 OA
BRANCH 20 40
ATOM     40  O4  IDS F   3     -14.965  48.471 172.7720  0.00  0.00     0.000 O
BRANCH 40 44
ATOM     41  C1  IDS F   3     -17.135  51.206 172.7540  0.00  0.00     0.000 C
ATOM     42  C2  IDS F   3     -17.113  50.253 171.5860  0.00  0.00     0.000 C
ATOM     43  C3  IDS F   3     -15.656  49.982 171.0490  0.00  0.00     0.000 C
ATOM     44  C4  IDS F   3     -14.677  49.730 172.1800  0.00  0.00     0.000 C
ATOM     45  C5  IDS F   3     -14.819  50.841 173.2200  0.00  0.00     0.000 C
ATOM     46  O5  IDS F   3     -16.135  50.863 173.7260  0.00  0.00     0.000 O
ATOM     47   O  IDS F   3     -18.500  47.677 170.2000  0.00  0.00     0.000 OA
ATOM     48   O  IDS F   3     -19.529  47.473 172.3210  0.00  0.00     0.000 OA
ATOM     49   O  IDS F   3     -19.792  49.467 170.9940  0.00  0.00     0.000 OA
ATOM     50   O  IDS F   3     -17.735  49.027 171.9860  0.00  0.00     0.000 O
ATOM     51   S  IDS F   3     -18.967  48.370 171.3460  0.00  0.00     0.000 S
ATOM     52   O  IDS F   3     -15.189  51.125 170.3400  0.00  0.00     0.000 O
ATOM     54  HD  IDS F   3     -15.983  50.804 170.4650  0.00  0.00     0.000 HD
ATOM     54   C  IDS F   3     -13.803  50.794 174.3660  0.00  0.00     0.000 C
ATOM     55   O  IDS F   3     -14.095  50.307 175.4560  0.00  0.00     0.000 OA
ATOM     56   O  IDS F   3     -12.655  51.235 174.2240  0.00  0.00     0.000 OA
BRANCH 41 57
ATOM     57  O4  SGN F   4     -16.984  52.510 172.2730  0.00  0.00     0.000 O
BRANCH 57 61
ATOM     58  C1  SGN F   4     -17.748  55.969 174.3220  0.00  0.00     0.000 C
ATOM     59  C2  SGN F   4     -16.366  55.864 173.6580  0.00  0.00     0.000 C
ATOM     60  C3  SGN F   4     -16.333  54.760 172.6160  0.00  0.00     0.000 C
ATOM     61  C4  SGN F   4     -16.824  53.468 173.2660  0.00  0.00     0.000 C
ATOM     62  C5  SGN F   4     -18.184  53.702 173.9510  0.00  0.00     0.000 C
ATOM     63  O5  SGN F   4     -18.099  54.735 174.8850  0.00  0.00     0.000 O
ATOM     64   N  SGN F   4     -15.971  57.139 173.0920  0.00  0.00     0.000 N
ATOM     66  HD  SGN F   4     -16.285  56.733 173.7890  0.00  0.00     0.000 HD
ATOM     66   S  SGN F   4     -15.216  58.199 174.0750  0.00  0.00     0.000 S
ATOM     67   O  SGN F   4     -16.212  58.636 175.0350  0.00  0.00     0.000 OA
ATOM     68   O  SGN F   4     -14.099  57.510 174.7190  0.00  0.00     0.000 OA
ATOM     69   O  SGN F   4     -14.814  59.256 173.1750  0.00  0.00     0.000 OA
ATOM     70   O  SGN F   4     -14.997  54.552 172.1800  0.00  0.00     0.000 O
ATOM     72  HD  SGN F   4     -15.311  54.146 172.8770  0.00  0.00     0.000 HD
ATOM     72   C  SGN F   4     -18.699  52.522 174.7320  0.00  0.00     0.000 C
ATOM     73   O  SGN F   4     -17.744  52.227 175.7260  0.00  0.00     0.000 O
ATOM     74   S  SGN F   4     -18.053  51.604 177.1170  0.00  0.00     0.000 S
ATOM     75   O  SGN F   4     -19.155  50.709 176.9750  0.00  0.00     0.000 OA
ATOM     76   O  SGN F   4     -16.843  50.912 177.5580  0.00  0.00     0.000 OA
ATOM     77   O  SGN F   4     -18.422  52.714 177.9050  0.00  0.00     0.000 OA
BRANCH 58 78
ATOM     78  O4  IDS F   5     -18.714  56.407 173.3980  0.00  0.00     0.000 O
BRANCH 78 82
ATOM     79  C1  IDS F   5     -21.483  57.714 171.7320  0.00  0.00     0.000 C
ATOM     80  C2  IDS F   5     -20.110  58.357 171.5980  0.00  0.00     0.000 C
ATOM     81  C3  IDS F   5     -19.478  58.643 172.9620  0.00  0.00     0.000 C
ATOM     82  C4  IDS F   5     -19.567  57.405 173.8800  0.00  0.00     0.000 C
ATOM     83  C5  IDS F   5     -21.004  56.880 173.9010  0.00  0.00     0.000 C
ATOM     84  O5  IDS F   5     -21.449  56.602 172.5890  0.00  0.00     0.000 O
ATOM     85   O  IDS F   5     -22.387  58.701 172.1620  0.00  0.00     0.000 OA
ATOM     86   O  IDS F   5     -19.272  57.458 170.9260  0.00  0.00     0.000 O
ATOM     87   S  IDS F   5     -17.914  57.761 170.2110  0.00  0.00     0.000 S
ATOM     88   O  IDS F   5     -17.297  58.857 170.9110  0.00  0.00     0.000 OA
ATOM     89   O  IDS F   5     -17.134  56.548 170.3020  0.00  0.00     0.000 OA
ATOM     90   O  IDS F   5     -18.277  58.120 168.8660  0.00  0.00     0.000 OA
ATOM     91   O  IDS F   5     -20.186  59.710 173.5600  0.00  0.00     0.000 O
ATOM     93  HD  IDS F   5     -20.677  59.283 174.1310  0.00  0.00     0.000 HD
ATOM     93   O  IDS F   5     -21.523  54.608 174.3610  0.00  0.00     0.000 OA
ATOM     94   O  IDS F   5     -21.060  55.773 176.0120  0.00  0.00     0.000 OA
ATOM     95   C  IDS F   5     -21.211  55.681 174.8080  0.00  0.00     0.000 C
ENDBRANCH 78 82
ENDBRANCH 58 78
ENDBRANCH 57 61
ENDBRANCH 41 57
ENDBRANCH 40 44
ENDBRANCH 20 40
ENDBRANCH 19 23
ENDBRANCH 1 19
TORSDOF 8
ENDMDL
MODEL 50
REMARK VINA RESULT:      -5.7      2.219      3.127
FFDIST PL LJ 2322 74 36 -1
ROOT
ATOM      1  C1  IDS F   1     -11.629  47.434 172.4250  0.00  0.00     0.000 C
ATOM      2  C2  IDS F   1     -11.119  45.999 172.6320  0.00  0.00     0.000 C
ATOM      3  C3  IDS F   1      -9.901  45.651 171.7420  0.00  0.00     0.000 C
ATOM      4  C4  IDS F   1      -8.899  46.815 171.5660  0.00  0.00     0.000 C
ATOM      5  C5  IDS F   1      -9.647  48.147 171.4350  0.00  0.00     0.000 C
ATOM      6  O5  IDS F   1     -10.534  48.307 172.4920  0.00  0.00     0.000 O
ATOM      7   S  IDS F   1     -10.512  44.449 174.7600  0.00  0.00     0.000 S
ATOM      8   O  IDS F   1      -9.661  43.665 173.9180  0.00  0.00     0.000 OA
ATOM      9   O  IDS F   1      -9.873  44.749 176.0090  0.00  0.00     0.000 OA
ATOM     10   O  IDS F   1     -11.834  43.888 174.9170  0.00  0.00     0.000 OA
ATOM     11   O  IDS F   1     -10.719  45.814 173.9750  0.00  0.00     0.000 O
ATOM     12   O  IDS F   1     -10.370  45.262 170.4530  0.00  0.00     0.000 O
ATOM     14  HD  IDS F   1      -9.984  45.384 169.6880  0.00  0.00     0.000 HD
ATOM     14   O  IDS F   1      -8.082  46.843 172.7110  0.00  0.00     0.000 O
ATOM     16  HD  IDS F   1      -7.696  46.965 171.9450  0.00  0.00     0.000 HD
ATOM     16   O  IDS F   1      -9.104  50.419 171.8940  0.00  0.00     0.000 OA
ATOM     17   O  IDS F   1      -7.794  49.418 170.6070  0.00  0.00     0.000 OA
ATOM     18   C  IDS F   1      -8.794  49.393 171.3040  0.00  0.00     0.000 C
ENDROOT
BRANCH 1 19
ATOM     19  O4  SGN F   2     -12.500  47.756 173.4550  0.00  0.00     0.000 O
BRANCH 19 23
ATOM     20  C1  SGN F   2     -16.634  47.754 174.0060  0.00  0.00     0.000 C
ATOM     21  C2  SGN F   2     -15.872  46.687 174.7750  0.00  0.00     0.000 C
ATOM     22  C3  SGN F   2     -14.402  47.088 174.9600  0.00  0.00     0.000 C
ATOM     23  C4  SGN F   2     -13.839  47.315 173.5210  0.00  0.00     0.000 C
ATOM     24  C5  SGN F   2     -14.666  48.397 172.9090  0.00  0.00     0.000 C
ATOM     25  O5  SGN F   2     -15.989  47.984 172.7830  0.00  0.00     0.000 O
ATOM     26   N  SGN F   2     -16.611  46.375 176.0220  0.00  0.00     0.000 N
ATOM     28  HD  SGN F   2     -16.397  46.264 176.8540  0.00  0.00     0.000 HD
ATOM     28   S  SGN F   2     -17.890  45.297 175.9170  0.00  0.00     0.000 S
ATOM     29   O  SGN F   2     -18.730  45.726 174.8220  0.00  0.00     0.000 OA
ATOM     30   O  SGN F   2     -17.270  44.015 175.6670  0.00  0.00     0.000 OA
ATOM     31   O  SGN F   2     -18.547  45.317 177.1730  0.00  0.00     0.000 OA
ATOM     32   O  SGN F   2     -13.722  46.016 175.6020  0.00  0.00     0.000 O
ATOM     34  HD  SGN F   2     -13.508  45.905 176.4340  0.00  0.00     0.000 HD
ATOM     34   C  SGN F   2     -14.205  48.762 171.5380  0.00  0.00     0.000 C
ATOM     35   O  SGN F   2     -14.206  47.573 170.8250  0.00  0.00     0.000 O
ATOM     36   S  SGN F   2     -13.993  47.400 169.3250  0.00  0.00     0.000 S
ATOM     37   O  SGN F   2     -12.903  46.463 169.2130  0.00  0.00     0.000 OA
ATOM     38   O  SGN F   2     -15.262  46.905 168.8370  0.00  0.00     0.000 OA
ATOM     39   O  SGN F   2     -13.665  48.714 168.7850  0.00  0.00     0.000 OA
BRANCH 20 40
ATOM     40  O4  IDS F   3     -16.732  48.947 174.7360  0.00  0.00     0.000 O
BRANCH 40 44
ATOM     41  C1  IDS F   3     -17.782  52.246 175.1930  0.00  0.00     0.000 C
ATOM     42  C2  IDS F   3     -17.403  51.403 176.3850  0.00  0.00     0.000 C
ATOM     43  C3  IDS F   3     -18.114  49.996 176.3870  0.00  0.00     0.000 C
ATOM     44  C4  IDS F   3     -18.068  49.341 175.0190  0.00  0.00     0.000 C
ATOM     45  C5  IDS F   3     -18.550  50.341 173.9690  0.00  0.00     0.000 C
ATOM     46  O5  IDS F   3     -17.725  51.484 173.9770  0.00  0.00     0.000 O
ATOM     47   O  IDS F   3     -15.070  50.637 178.4950  0.00  0.00     0.000 OA
ATOM     48   O  IDS F   3     -13.708  51.783 176.9360  0.00  0.00     0.000 OA
ATOM     49   O  IDS F   3     -15.571  52.876 178.0020  0.00  0.00     0.000 OA
ATOM     50   O  IDS F   3     -15.980  51.244 176.3970  0.00  0.00     0.000 O
ATOM     51   S  IDS F   3     -15.018  51.664 177.5180  0.00  0.00     0.000 S
ATOM     52   O  IDS F   3     -19.488  50.156 176.7260  0.00  0.00     0.000 O
ATOM     54  HD  IDS F   3     -18.780  50.607 176.9390  0.00  0.00     0.000 HD
ATOM     54   C  IDS F   3     -18.682  49.782 172.5480  0.00  0.00     0.000 C
ATOM     55   O  IDS F   3     -17.801  49.961 171.7100  0.00  0.00     0.000 OA
ATOM     56   O  IDS F   3     -19.674  49.125 172.2070  0.00  0.00     0.000 OA
BRANCH 41 57
ATOM     57  O4  SGN F   4     -19.047  52.796 175.4170  0.00  0.00     0.000 O
BRANCH 57 61
ATOM     58  C1  SGN F   4     -21.114  55.851 173.6440  0.00  0.00     0.000 C
ATOM     59  C2  SGN F   4     -21.575  54.427 173.2950  0.00  0.00     0.000 C
ATOM     60  C3  SGN F   4     -21.034  53.410 174.2850  0.00  0.00     0.000 C
ATOM     61  C4  SGN F   4     -19.519  53.582 174.3730  0.00  0.00     0.000 C
ATOM     62  C5  SGN F   4     -19.168  55.054 174.6650  0.00  0.00     0.000 C
ATOM     63  O5  SGN F   4     -19.715  55.897 173.6980  0.00  0.00     0.000 O
ATOM     64   N  SGN F   4     -23.022  54.363 173.2080  0.00  0.00     0.000 N
ATOM     66  HD  SGN F   4     -22.309  54.791 172.9660  0.00  0.00     0.000 HD
ATOM     66   S  SGN F   4     -23.708  54.739 171.7770  0.00  0.00     0.000 S
ATOM     67   O  SGN F   4     -23.496  56.162 171.5920  0.00  0.00     0.000 OA
ATOM     68   O  SGN F   4     -23.055  53.948 170.7350  0.00  0.00     0.000 OA
ATOM     69   O  SGN F   4     -25.100  54.408 171.9810  0.00  0.00     0.000 OA
ATOM     70   O  SGN F   4     -21.300  52.096 173.8160  0.00  0.00     0.000 O
ATOM     72  HD  SGN F   4     -20.587  52.524 173.5740  0.00  0.00     0.000 HD
ATOM     72   C  SGN F   4     -17.693  55.357 174.6470  0.00  0.00     0.000 C
ATOM     73   O  SGN F   4     -17.213  55.030 173.3630  0.00  0.00     0.000 O
ATOM     74   S  SGN F   4     -16.021  55.724 172.6420  0.00  0.00     0.000 S
ATOM     75   O  SGN F   4     -15.063  56.110 173.6260  0.00  0.00     0.000 OA
ATOM     76   O  SGN F   4     -15.469  54.757 171.6950  0.00  0.00     0.000 OA
ATOM     77   O  SGN F   4     -16.605  56.864 172.0530  0.00  0.00     0.000 OA
BRANCH 58 78
ATOM     78  O4  IDS F   5     -21.691  56.281 174.8530  0.00  0.00     0.000 O
BRANCH 78 82
ATOM     79  C1  IDS F   5     -23.125  57.992 177.5300  0.00  0.00     0.000 C
ATOM     80  C2  IDS F   5     -23.964  57.098 176.6280  0.00  0.00     0.000 C
ATOM     81  C3  IDS F   5     -23.775  57.439 175.1480  0.00  0.00     0.000 C
ATOM     82  C4  IDS F   5     -22.275  57.550 174.7980  0.00  0.00     0.000 C
ATOM     83  C5  IDS F   5     -21.578  58.476 175.7970  0.00  0.00     0.000 C
ATOM     84  O5  IDS F   5     -21.782  58.022 177.1190  0.00  0.00     0.000 O
ATOM     85   O  IDS F   5     -23.712  59.269 177.5470  0.00  0.00     0.000 OA
ATOM     86   O  IDS F   5     -23.543  55.775 176.8120  0.00  0.00     0.000 O
ATOM     87   S  IDS F   5     -24.303  54.463 176.4320  0.00  0.00     0.000 S
ATOM     88   O  IDS F   5     -25.109  54.754 175.2760  0.00  0.00     0.000 OA
ATOM     89   O  IDS F   5     -23.285  53.476 176.1530  0.00  0.00     0.000 OA
ATOM     90   O  IDS F   5     -25.110  54.157 177.5840  0.00  0.00     0.000 OA
ATOM     91   O  IDS F   5     -24.397  58.684 174.9010  0.00  0.00     0.000 O
ATOM     93  HD  IDS F   5     -23.710  59.210 174.8760  0.00  0.00     0.000 HD
ATOM     93   O  IDS F   5     -19.261  58.301 176.2910  0.00  0.00     0.000 OA
ATOM     94   O  IDS F   5     -19.727  59.240 174.5030  0.00  0.00     0.000 OA
ATOM     95   C  IDS F   5     -20.101  58.685 175.5180  0.00  0.00     0.000 C
ENDBRANCH 78 82
ENDBRANCH 58 78
ENDBRANCH 57 61
ENDBRANCH 41 57
ENDBRANCH 40 44
ENDBRANCH 20 40
ENDBRANCH 19 23
ENDBRANCH 1 19
TORSDOF 8
ENDMDL
MODEL 51
REMARK VINA RESULT:      -5.7      3.854     11.514
FFDIST PL LJ 2322 74 36 -1
ROOT
ATOM      1  C1  IDS F   1     -17.032  58.388 169.4500  0.00  0.00     0.000 C
ATOM      2  C2  IDS F   1     -16.005  58.058 168.3540  0.00  0.00     0.000 C
ATOM      3  C3  IDS F   1     -16.658  57.657 167.0090  0.00  0.00     0.000 C
ATOM      4  C4  IDS F   1     -17.932  58.463 166.6640  0.00  0.00     0.000 C
ATOM      5  C5  IDS F   1     -18.763  58.711 167.9280  0.00  0.00     0.000 C
ATOM      6  O5  IDS F   1     -17.974  59.282 168.9190  0.00  0.00     0.000 O
ATOM      7   S  IDS F   1     -13.772  59.226 167.3820  0.00  0.00     0.000 S
ATOM      8   O  IDS F   1     -13.960  58.513 166.1550  0.00  0.00     0.000 OA
ATOM      9   O  IDS F   1     -13.441  60.600 167.1370  0.00  0.00     0.000 OA
ATOM     10   O  IDS F   1     -12.856  58.572 168.2870  0.00  0.00     0.000 OA
ATOM     11   O  IDS F   1     -15.187  59.182 168.1020  0.00  0.00     0.000 O
ATOM     12   O  IDS F   1     -16.998  56.274 167.0580  0.00  0.00     0.000 O
ATOM     14  HD  IDS F   1     -17.667  55.878 166.6760  0.00  0.00     0.000 HD
ATOM     14   O  IDS F   1     -17.518  59.693 166.1220  0.00  0.00     0.000 O
ATOM     16  HD  IDS F   1     -18.186  59.296 165.7400  0.00  0.00     0.000 HD
ATOM     16   O  IDS F   1     -20.333  60.373 168.5940  0.00  0.00     0.000 OA
ATOM     17   O  IDS F   1     -20.770  59.381 166.8050  0.00  0.00     0.000 OA
ATOM     18   C  IDS F   1     -20.024  59.534 167.7580  0.00  0.00     0.000 C
ENDROOT
BRANCH 1 19
ATOM     19  O4  SGN F   2     -16.384  59.021 170.5000  0.00  0.00     0.000 O
BRANCH 19 23
ATOM     20  C1  SGN F   2     -16.673  56.656 173.9230  0.00  0.00     0.000 C
ATOM     21  C2  SGN F   2     -17.791  57.669 173.7330  0.00  0.00     0.000 C
ATOM     22  C3  SGN F   2     -17.916  58.077 172.2580  0.00  0.00     0.000 C
ATOM     23  C4  SGN F   2     -16.515  58.637 171.8520  0.00  0.00     0.000 C
ATOM     24  C5  SGN F   2     -15.538  57.530 172.0700  0.00  0.00     0.000 C
ATOM     25  O5  SGN F   2     -15.481  57.192 173.4190  0.00  0.00     0.000 O
ATOM     26   N  SGN F   2     -19.028  57.141 174.3560  0.00  0.00     0.000 N
ATOM     28  HD  SGN F   2     -19.861  57.088 174.1250  0.00  0.00     0.000 HD
ATOM     28   S  SGN F   2     -19.211  57.345 176.0100  0.00  0.00     0.000 S
ATOM     29   O  SGN F   2     -17.991  56.894 176.6400  0.00  0.00     0.000 OA
ATOM     30   O  SGN F   2     -19.430  58.763 176.1830  0.00  0.00     0.000 OA
ATOM     31   O  SGN F   2     -20.352  56.595 176.3910  0.00  0.00     0.000 OA
ATOM     32   O  SGN F   2     -18.910  59.089 172.1560  0.00  0.00     0.000 O
ATOM     34  HD  SGN F   2     -19.743  59.036 171.9240  0.00  0.00     0.000 HD
ATOM     34   C  SGN F   2     -14.151  57.906 171.6690  0.00  0.00     0.000 C
ATOM     35   O  SGN F   2     -13.868  59.063 172.3790  0.00  0.00     0.000 O
ATOM     36   S  SGN F   2     -12.522  59.772 172.4840  0.00  0.00     0.000 S
ATOM     37   O  SGN F   2     -12.784  61.125 172.0630  0.00  0.00     0.000 OA
ATOM     38   O  SGN F   2     -12.153  59.636 173.8760  0.00  0.00     0.000 OA
ATOM     39   O  SGN F   2     -11.601  59.073 171.5960  0.00  0.00     0.000 OA
BRANCH 20 40
ATOM     40  O4  IDS F   3     -16.966  55.439 173.2930  0.00  0.00     0.000 O
BRANCH 40 44
ATOM     41  C1  IDS F   3     -17.705  52.121 172.4920  0.00  0.00     0.000 C
ATOM     42  C2  IDS F   3     -18.468  52.820 173.5890  0.00  0.00     0.000 C
ATOM     43  C3  IDS F   3     -17.523  53.532 174.6300  0.00  0.00     0.000 C
ATOM     44  C4  IDS F   3     -16.411  54.304 173.9450  0.00  0.00     0.000 C
ATOM     45  C5  IDS F   3     -15.729  53.396 172.9220  0.00  0.00     0.000 C
ATOM     46  O5  IDS F   3     -16.667  52.960 171.9630  0.00  0.00     0.000 O
ATOM     47   O  IDS F   3     -21.160  54.440 174.3700  0.00  0.00     0.000 OA
ATOM     48   O  IDS F   3     -21.399  54.567 172.0190  0.00  0.00     0.000 OA
ATOM     49   O  IDS F   3     -21.261  52.442 173.1450  0.00  0.00     0.000 OA
ATOM     50   O  IDS F   3     -19.359  53.769 172.9910  0.00  0.00     0.000 O
ATOM     51   S  IDS F   3     -20.888  53.809 173.1300  0.00  0.00     0.000 S
ATOM     52   O  IDS F   3     -16.901  52.554 175.4570  0.00  0.00     0.000 O
ATOM     54  HD  IDS F   3     -17.664  52.569 175.0470  0.00  0.00     0.000 HD
ATOM     54   C  IDS F   3     -14.497  53.997 172.2360  0.00  0.00     0.000 C
ATOM     55   O  IDS F   3     -14.575  54.501 171.1180  0.00  0.00     0.000 OA
ATOM     56   O  IDS F   3     -13.392  54.004 172.7930  0.00  0.00     0.000 OA
BRANCH 41 57
ATOM     57  O4  SGN F   4     -17.210  50.912 172.9900  0.00  0.00     0.000 O
BRANCH 57 61
ATOM     58  C1  SGN F   4     -16.339  47.194 171.5200  0.00  0.00     0.000 C
ATOM     59  C2  SGN F   4     -15.655  48.378 170.8190  0.00  0.00     0.000 C
ATOM     60  C3  SGN F   4     -15.718  49.637 171.6670  0.00  0.00     0.000 C
ATOM     61  C4  SGN F   4     -17.174  49.885 172.0560  0.00  0.00     0.000 C
ATOM     62  C5  SGN F   4     -17.776  48.617 172.6930  0.00  0.00     0.000 C
ATOM     63  O5  SGN F   4     -17.664  47.526 171.8300  0.00  0.00     0.000 O
ATOM     64   N  SGN F   4     -14.289  48.046 170.4650  0.00  0.00     0.000 N
ATOM     66  HD  SGN F   4     -15.116  47.789 170.4440  0.00  0.00     0.000 HD
ATOM     66   S  SGN F   4     -14.041  47.295 169.0380  0.00  0.00     0.000 S
ATOM     67   O  SGN F   4     -14.607  45.967 169.1800  0.00  0.00     0.000 OA
ATOM     68   O  SGN F   4     -14.711  48.067 167.9930  0.00  0.00     0.000 OA
ATOM     69   O  SGN F   4     -12.601  47.274 168.9210  0.00  0.00     0.000 OA
ATOM     70   O  SGN F   4     -15.270  50.750 170.9070  0.00  0.00     0.000 O
ATOM     72  HD  SGN F   4     -16.097  50.494 170.8860  0.00  0.00     0.000 HD
ATOM     72   C  SGN F   4     -19.248  48.713 172.9980  0.00  0.00     0.000 C
ATOM     73   O  SGN F   4     -19.913  48.961 171.7810  0.00  0.00     0.000 O
ATOM     74   S  SGN F   4     -21.362  48.508 171.4360  0.00  0.00     0.000 S
ATOM     75   O  SGN F   4     -22.139  48.537 172.6310  0.00  0.00     0.000 OA
ATOM     76   O  SGN F   4     -21.875  49.434 170.4290  0.00  0.00     0.000 OA
ATOM     77   O  SGN F   4     -21.197  47.180 170.9910  0.00  0.00     0.000 OA
BRANCH 58 78
ATOM     78  O4  IDS F   5     -15.622  46.811 172.6680  0.00  0.00     0.000 O
BRANCH 78 82
ATOM     79  C1  IDS F   5     -14.160  45.193 175.3880  0.00  0.00     0.000 C
ATOM     80  C2  IDS F   5     -13.323  45.646 174.2000  0.00  0.00     0.000 C
ATOM     81  C3  IDS F   5     -13.899  45.149 172.8720  0.00  0.00     0.000 C
ATOM     82  C4  IDS F   5     -15.414  45.433 172.7900  0.00  0.00     0.000 C
ATOM     83  C5  IDS F   5     -16.105  44.924 174.0560  0.00  0.00     0.000 C
ATOM     84  O5  IDS F   5     -15.519  45.498 175.2060  0.00  0.00     0.000 O
ATOM     85   O  IDS F   5     -13.937  43.819 175.5810  0.00  0.00     0.000 OA
ATOM     86   O  IDS F   5     -13.335  47.046 174.1660  0.00  0.00     0.000 O
ATOM     87   S  IDS F   5     -12.355  47.998 173.4070  0.00  0.00     0.000 S
ATOM     88   O  IDS F   5     -11.913  47.303 172.2260  0.00  0.00     0.000 OA
ATOM     89   O  IDS F   5     -13.114  49.185 173.0880  0.00  0.00     0.000 OA
ATOM     90   O  IDS F   5     -11.274  48.227 174.3290  0.00  0.00     0.000 OA
ATOM     91   O  IDS F   5     -13.690  43.752 172.7970  0.00  0.00     0.000 O
ATOM     93  HD  IDS F   5     -14.480  43.456 172.9900  0.00  0.00     0.000 HD
ATOM     93   O  IDS F   5     -18.140  45.852 174.8570  0.00  0.00     0.000 OA
ATOM     94   O  IDS F   5     -18.319  44.549 173.2550  0.00  0.00     0.000 OA
ATOM     95   C  IDS F   5     -17.610  45.120 174.0610  0.00  0.00     0.000 C
ENDBRANCH 78 82
ENDBRANCH 58 78
ENDBRANCH 57 61
ENDBRANCH 41 57
ENDBRANCH 40 44
ENDBRANCH 20 40
ENDBRANCH 19 23
ENDBRANCH 1 19
TORSDOF 8
ENDMDL
MODEL 52
REMARK VINA RESULT:      -5.7      2.788      5.869
FFDIST PL LJ 2322 74 36 -1
ROOT
ATOM      1  C1  IDS F   1      -8.849  46.911 173.4230  0.00  0.00     0.000 C
ATOM      2  C2  IDS F   1      -8.092  45.573 173.4140  0.00  0.00     0.000 C
ATOM      3  C3  IDS F   1      -6.554  45.744 173.4000  0.00  0.00     0.000 C
ATOM      4  C4  IDS F   1      -6.045  46.920 174.2640  0.00  0.00     0.000 C
ATOM      5  C5  IDS F   1      -6.996  48.117 174.1490  0.00  0.00     0.000 C
ATOM      6  O5  IDS F   1      -8.299  47.724 174.4250  0.00  0.00     0.000 O
ATOM      7   S  IDS F   1      -8.224  43.267 174.8160  0.00  0.00     0.000 S
ATOM      8   O  IDS F   1      -6.859  43.006 174.4700  0.00  0.00     0.000 OA
ATOM      9   O  IDS F   1      -8.465  43.006 176.2050  0.00  0.00     0.000 OA
ATOM     10   O  IDS F   1      -9.170  42.615 173.9410  0.00  0.00     0.000 OA
ATOM     11   O  IDS F   1      -8.417  44.824 174.5680  0.00  0.00     0.000 O
ATOM     12   O  IDS F   1      -6.128  45.954 172.0560  0.00  0.00     0.000 O
ATOM     14  HD  IDS F   1      -5.463  46.435 171.7780  0.00  0.00     0.000 HD
ATOM     14   O  IDS F   1      -6.004  46.476 175.5980  0.00  0.00     0.000 O
ATOM     16  HD  IDS F   1      -5.339  46.956 175.3200  0.00  0.00     0.000 HD
ATOM     16   O  IDS F   1      -7.536  49.961 175.5540  0.00  0.00     0.000 OA
ATOM     17   O  IDS F   1      -5.507  49.738 175.0950  0.00  0.00     0.000 OA
ATOM     18   C  IDS F   1      -6.654  49.336 174.9810  0.00  0.00     0.000 C
ENDROOT
BRANCH 1 19
ATOM     19  O4  SGN F   2     -10.178  46.675 173.7430  0.00  0.00     0.000 O
BRANCH 19 23
ATOM     20  C1  SGN F   2     -13.721  46.035 171.6370  0.00  0.00     0.000 C
ATOM     21  C2  SGN F   2     -13.149  44.814 172.3410  0.00  0.00     0.000 C
ATOM     22  C3  SGN F   2     -12.221  45.229 173.4910  0.00  0.00     0.000 C
ATOM     23  C4  SGN F   2     -11.118  46.126 172.8440  0.00  0.00     0.000 C
ATOM     24  C5  SGN F   2     -11.827  47.283 172.2210  0.00  0.00     0.000 C
ATOM     25  O5  SGN F   2     -12.665  46.846 171.2000  0.00  0.00     0.000 O
ATOM     26   N  SGN F   2     -14.264  43.910 172.7140  0.00  0.00     0.000 N
ATOM     28  HD  SGN F   2     -14.483  43.460 173.4210  0.00  0.00     0.000 HD
ATOM     28   S  SGN F   2     -14.852  42.876 171.5330  0.00  0.00     0.000 S
ATOM     29   O  SGN F   2     -15.101  43.666 170.3490  0.00  0.00     0.000 OA
ATOM     30   O  SGN F   2     -13.798  41.906 171.3370  0.00  0.00     0.000 OA
ATOM     31   O  SGN F   2     -16.019  42.271 172.0630  0.00  0.00     0.000 OA
ATOM     32   O  SGN F   2     -11.647  44.053 174.0500  0.00  0.00     0.000 O
ATOM     34  HD  SGN F   2     -11.866  43.603 174.7570  0.00  0.00     0.000 HD
ATOM     34   C  SGN F   2     -10.887  48.264 171.6050  0.00  0.00     0.000 C
ATOM     35   O  SGN F   2     -10.117  47.523 170.7200  0.00  0.00     0.000 O
ATOM     36   S  SGN F   2      -9.123  48.059 169.6950  0.00  0.00     0.000 S
ATOM     37   O  SGN F   2      -7.887  47.380 169.9900  0.00  0.00     0.000 OA
ATOM     38   O  SGN F   2      -9.707  47.716 168.4160  0.00  0.00     0.000 OA
ATOM     39   O  SGN F   2      -9.036  49.500 169.8960  0.00  0.00     0.000 OA
BRANCH 20 40
ATOM     40  O4  IDS F   3     -14.578  46.761 172.4760  0.00  0.00     0.000 O
BRANCH 40 44
ATOM     41  C1  IDS F   3     -17.513  48.512 173.1900  0.00  0.00     0.000 C
ATOM     42  C2  IDS F   3     -17.412  47.693 171.9280  0.00  0.00     0.000 C
ATOM     43  C3  IDS F   3     -16.102  48.000 171.1070  0.00  0.00     0.000 C
ATOM     44  C4  IDS F   3     -14.879  48.066 172.0020  0.00  0.00     0.000 C
ATOM     45  C5  IDS F   3     -15.172  48.995 173.1800  0.00  0.00     0.000 C
ATOM     46  O5  IDS F   3     -16.273  48.510 173.9140  0.00  0.00     0.000 O
ATOM     47   O  IDS F   3     -18.080  44.862 170.5080  0.00  0.00     0.000 OA
ATOM     48   O  IDS F   3     -18.497  44.190 172.7390  0.00  0.00     0.000 OA
ATOM     49   O  IDS F   3     -19.712  46.015 171.7390  0.00  0.00     0.000 OA
ATOM     50   O  IDS F   3     -17.469  46.306 172.2790  0.00  0.00     0.000 O
ATOM     51   S  IDS F   3     -18.502  45.278 171.7970  0.00  0.00     0.000 S
ATOM     52   O  IDS F   3     -16.223  49.269 170.4720  0.00  0.00     0.000 O
ATOM     54  HD  IDS F   3     -16.810  48.674 170.6990  0.00  0.00     0.000 HD
ATOM     54   C  IDS F   3     -13.982  49.265 174.1080  0.00  0.00     0.000 C
ATOM     55   O  IDS F   3     -13.848  48.651 175.1640  0.00  0.00     0.000 OA
ATOM     56   O  IDS F   3     -13.117  50.101 173.8160  0.00  0.00     0.000 OA
BRANCH 41 57
ATOM     57  O4  SGN F   4     -17.930  49.804 172.8550  0.00  0.00     0.000 O
BRANCH 57 61
ATOM     58  C1  SGN F   4     -20.029  52.678 174.8750  0.00  0.00     0.000 C
ATOM     59  C2  SGN F   4     -18.514  52.906 174.7480  0.00  0.00     0.000 C
ATOM     60  C3  SGN F   4     -17.909  52.027 173.6680  0.00  0.00     0.000 C
ATOM     61  C4  SGN F   4     -18.311  50.580 173.9430  0.00  0.00     0.000 C
ATOM     62  C5  SGN F   4     -19.839  50.477 174.1110  0.00  0.00     0.000 C
ATOM     63  O5  SGN F   4     -20.285  51.324 175.1260  0.00  0.00     0.000 O
ATOM     64   N  SGN F   4     -18.224  54.308 174.5150  0.00  0.00     0.000 N
ATOM     66  HD  SGN F   4     -18.662  53.739 174.9990  0.00  0.00     0.000 HD
ATOM     66   S  SGN F   4     -18.076  55.275 175.8190  0.00  0.00     0.000 S
ATOM     67   O  SGN F   4     -19.402  55.374 176.3990  0.00  0.00     0.000 OA
ATOM     68   O  SGN F   4     -17.121  54.658 176.7390  0.00  0.00     0.000 OA
ATOM     69   O  SGN F   4     -17.623  56.526 175.2540  0.00  0.00     0.000 OA
ATOM     70   O  SGN F   4     -16.491  52.107 173.7230  0.00  0.00     0.000 O
ATOM     72  HD  SGN F   4     -16.929  51.539 174.2080  0.00  0.00     0.000 HD
ATOM     72   C  SGN F   4     -20.330  49.110 174.5120  0.00  0.00     0.000 C
ATOM     73   O  SGN F   4     -19.722  48.789 175.7420  0.00  0.00     0.000 O
ATOM     74   S  SGN F   4     -20.343  47.884 176.8450  0.00  0.00     0.000 S
ATOM     75   O  SGN F   4     -21.124  46.874 176.2130  0.00  0.00     0.000 OA
ATOM     76   O  SGN F   4     -19.234  47.317 177.6100  0.00  0.00     0.000 OA
ATOM     77   O  SGN F   4     -21.173  48.765 177.5690  0.00  0.00     0.000 OA
BRANCH 58 78
ATOM     78  O4  IDS F   5     -20.700  53.125 173.7220  0.00  0.00     0.000 O
BRANCH 78 82
ATOM     79  C1  IDS F   5     -22.947  54.291 171.3260  0.00  0.00     0.000 C
ATOM     80  C2  IDS F   5     -21.784  55.152 171.7980  0.00  0.00     0.000 C
ATOM     81  C3  IDS F   5     -21.733  55.257 173.3240  0.00  0.00     0.000 C
ATOM     82  C4  IDS F   5     -21.860  53.863 173.9750  0.00  0.00     0.000 C
ATOM     83  C5  IDS F   5     -23.068  53.128 173.3910  0.00  0.00     0.000 C
ATOM     84  O5  IDS F   5     -22.968  53.050 171.9840  0.00  0.00     0.000 O
ATOM     85   O  IDS F   5     -24.134  55.020 171.5110  0.00  0.00     0.000 OA
ATOM     86   O  IDS F   5     -20.594  54.545 171.3770  0.00  0.00     0.000 O
ATOM     87   S  IDS F   5     -19.174  55.190 171.2650  0.00  0.00     0.000 S
ATOM     88   O  IDS F   5     -19.085  56.208 172.2790  0.00  0.00     0.000 OA
ATOM     89   O  IDS F   5     -18.228  54.119 171.4840  0.00  0.00     0.000 OA
ATOM     90   O  IDS F   5     -19.125  55.748 169.9400  0.00  0.00     0.000 OA
ATOM     91   O  IDS F   5     -22.816  56.061 173.7460  0.00  0.00     0.000 O
ATOM     93  HD  IDS F   5     -23.367  55.458 174.0330  0.00  0.00     0.000 HD
ATOM     93   O  IDS F   5     -23.208  50.757 173.3280  0.00  0.00     0.000 OA
ATOM     94   O  IDS F   5     -23.600  51.629 175.1670  0.00  0.00     0.000 OA
ATOM     95   C  IDS F   5     -23.308  51.756 173.9930  0.00  0.00     0.000 C
ENDBRANCH 78 82
ENDBRANCH 58 78
ENDBRANCH 57 61
ENDBRANCH 41 57
ENDBRANCH 40 44
ENDBRANCH 20 40
ENDBRANCH 19 23
ENDBRANCH 1 19
TORSDOF 8
ENDMDL
MODEL 53
REMARK VINA RESULT:      -5.6      3.287     11.861
FFDIST PL LJ 2322 74 36 -1
ROOT
ATOM      1  C1  IDS F   1     -21.540  49.763 175.9990  0.00  0.00     0.000 C
ATOM      2  C2  IDS F   1     -22.311  48.473 175.6770  0.00  0.00     0.000 C
ATOM      3  C3  IDS F   1     -23.848  48.652 175.7280  0.00  0.00     0.000 C
ATOM      4  C4  IDS F   1     -24.340  50.011 175.1770  0.00  0.00     0.000 C
ATOM      5  C5  IDS F   1     -23.377  51.131 175.5850  0.00  0.00     0.000 C
ATOM      6  O5  IDS F   1     -22.076  50.803 175.2250  0.00  0.00     0.000 O
ATOM      7   S  IDS F   1     -22.196  46.579 173.7530  0.00  0.00     0.000 S
ATOM      8   O  IDS F   1     -23.565  46.257 174.0200  0.00  0.00     0.000 OA
ATOM      9   O  IDS F   1     -21.949  46.664 172.3430  0.00  0.00     0.000 OA
ATOM     10   O  IDS F   1     -21.262  45.721 174.4450  0.00  0.00     0.000 OA
ATOM     11   O  IDS F   1     -21.988  48.026 174.3760  0.00  0.00     0.000 O
ATOM     12   O  IDS F   1     -24.280  48.532 177.0810  0.00  0.00     0.000 O
ATOM     14  HD  IDS F   1     -24.941  48.937 177.4660  0.00  0.00     0.000 HD
ATOM     14   O  IDS F   1     -24.378  49.907 173.7750  0.00  0.00     0.000 O
ATOM     16  HD  IDS F   1     -25.039  50.313 174.1600  0.00  0.00     0.000 HD
ATOM     16   O  IDS F   1     -22.809  53.257 174.6770  0.00  0.00     0.000 OA
ATOM     17   O  IDS F   1     -24.843  52.953 175.0610  0.00  0.00     0.000 OA
ATOM     18   C  IDS F   1     -23.701  52.522 175.0770  0.00  0.00     0.000 C
ENDROOT
BRANCH 1 19
ATOM     19  O4  SGN F   2     -20.212  49.597 175.6350  0.00  0.00     0.000 O
BRANCH 19 23
ATOM     20  C1  SGN F   2     -16.799  51.707 174.4990  0.00  0.00     0.000 C
ATOM     21  C2  SGN F   2     -17.505  52.228 175.7410  0.00  0.00     0.000 C
ATOM     22  C3  SGN F   2     -18.362  51.129 176.3850  0.00  0.00     0.000 C
ATOM     23  C4  SGN F   2     -19.357  50.661 175.2750  0.00  0.00     0.000 C
ATOM     24  C5  SGN F   2     -18.521  50.161 174.1430  0.00  0.00     0.000 C
ATOM     25  O5  SGN F   2     -17.754  51.193 173.6120  0.00  0.00     0.000 O
ATOM     26   N  SGN F   2     -16.503  52.861 176.6320  0.00  0.00     0.000 N
ATOM     28  HD  SGN F   2     -16.332  52.838 177.4810  0.00  0.00     0.000 HD
ATOM     28   S  SGN F   2     -16.059  54.442 176.3000  0.00  0.00     0.000 S
ATOM     29   O  SGN F   2     -15.731  54.514 174.8940  0.00  0.00     0.000 OA
ATOM     30   O  SGN F   2     -17.224  55.229 176.6350  0.00  0.00     0.000 OA
ATOM     31   O  SGN F   2     -14.966  54.748 177.1490  0.00  0.00     0.000 OA
ATOM     32   O  SGN F   2     -19.067  51.696 177.4830  0.00  0.00     0.000 O
ATOM     34  HD  SGN F   2     -18.895  51.674 178.3310  0.00  0.00     0.000 HD
ATOM     34   C  SGN F   2     -19.344  49.624 173.0200  0.00  0.00     0.000 C
ATOM     35   O  SGN F   2     -20.208  50.654 172.6780  0.00  0.00     0.000 O
ATOM     36   S  SGN F   2     -21.143  50.709 171.4740  0.00  0.00     0.000 S
ATOM     37   O  SGN F   2     -22.448  50.957 172.0320  0.00  0.00     0.000 OA
ATOM     38   O  SGN F   2     -20.620  51.787 170.6640  0.00  0.00     0.000 OA
ATOM     39   O  SGN F   2     -21.052  49.418 170.8040  0.00  0.00     0.000 OA
BRANCH 20 40
ATOM     40  O4  IDS F   3     -15.850  50.725 174.8170  0.00  0.00     0.000 O
BRANCH 40 44
ATOM     41  C1  IDS F   3     -13.185  48.473 174.9470  0.00  0.00     0.000 C
ATOM     42  C2  IDS F   3     -13.285  49.583 175.9630  0.00  0.00     0.000 C
ATOM     43  C3  IDS F   3     -13.521  50.994 175.3020  0.00  0.00     0.000 C
ATOM     44  C4  IDS F   3     -14.579  50.937 174.2160  0.00  0.00     0.000 C
ATOM     45  C5  IDS F   3     -14.255  49.788 173.2620  0.00  0.00     0.000 C
ATOM     46  O5  IDS F   3     -14.230  48.567 173.9680  0.00  0.00     0.000 O
ATOM     47   O  IDS F   3     -14.236  50.412 178.9450  0.00  0.00     0.000 OA
ATOM     48   O  IDS F   3     -15.369  48.338 178.8290  0.00  0.00     0.000 OA
ATOM     49   O  IDS F   3     -12.977  48.467 178.5720  0.00  0.00     0.000 OA
ATOM     50   O  IDS F   3     -14.346  49.273 176.8740  0.00  0.00     0.000 O
ATOM     51   S  IDS F   3     -14.231  49.104 178.3960  0.00  0.00     0.000 S
ATOM     52   O  IDS F   3     -12.317  51.440 174.6860  0.00  0.00     0.000 O
ATOM     54  HD  IDS F   3     -12.466  50.929 175.3700  0.00  0.00     0.000 HD
ATOM     54   C  IDS F   3     -15.168  49.683 172.0350  0.00  0.00     0.000 C
ATOM     55   O  IDS F   3     -16.106  48.890 172.0070  0.00  0.00     0.000 OA
ATOM     56   O  IDS F   3     -14.993  50.401 171.0420  0.00  0.00     0.000 OA
BRANCH 41 57
ATOM     57  O4  SGN F   4     -11.912  48.505 174.3720  0.00  0.00     0.000 O
BRANCH 57 61
ATOM     58  C1  SGN F   4     -12.211  44.699 172.8970  0.00  0.00     0.000 C
ATOM     59  C2  SGN F   4     -11.619  44.836 174.3090  0.00  0.00     0.000 C
ATOM     60  C3  SGN F   4     -11.919  46.199 174.9070  0.00  0.00     0.000 C
ATOM     61  C4  SGN F   4     -11.461  47.271 173.9200  0.00  0.00     0.000 C
ATOM     62  C5  SGN F   4     -12.065  47.003 172.5280  0.00  0.00     0.000 C
ATOM     63  O5  SGN F   4     -11.727  45.726 172.0770  0.00  0.00     0.000 O
ATOM     64   N  SGN F   4     -12.086  43.765 175.1670  0.00  0.00     0.000 N
ATOM     66  HD  SGN F   4     -11.743  43.966 174.3980  0.00  0.00     0.000 HD
ATOM     66   S  SGN F   4     -11.250  42.365 175.1500  0.00  0.00     0.000 S
ATOM     67   O  SGN F   4     -11.482  41.775 173.8450  0.00  0.00     0.000 OA
ATOM     68   O  SGN F   4      -9.839  42.673 175.3690  0.00  0.00     0.000 OA
ATOM     69   O  SGN F   4     -11.858  41.603 176.2180  0.00  0.00     0.000 OA
ATOM     70   O  SGN F   4     -11.183  46.366 176.1110  0.00  0.00     0.000 O
ATOM     72  HD  SGN F   4     -10.840  46.568 175.3420  0.00  0.00     0.000 HD
ATOM     72   C  SGN F   4     -11.574  47.931 171.4480  0.00  0.00     0.000 C
ATOM     73   O  SGN F   4     -10.175  47.778 171.3660  0.00  0.00     0.000 O
ATOM     74   S  SGN F   4      -9.322  47.965 170.0780  0.00  0.00     0.000 S
ATOM     75   O  SGN F   4      -9.921  48.987 169.2850  0.00  0.00     0.000 OA
ATOM     76   O  SGN F   4      -7.972  48.328 170.5050  0.00  0.00     0.000 OA
ATOM     77   O  SGN F   4      -9.423  46.718 169.4280  0.00  0.00     0.000 OA
BRANCH 58 78
ATOM     78  O4  IDS F   5     -13.617  44.696 172.9440  0.00  0.00     0.000 O
BRANCH 78 82
ATOM     79  C1  IDS F   5     -17.045  44.348 172.4150  0.00  0.00     0.000 C
ATOM     80  C2  IDS F   5     -16.321  43.506 173.4560  0.00  0.00     0.000 C
ATOM     81  C3  IDS F   5     -15.095  42.803 172.8700  0.00  0.00     0.000 C
ATOM     82  C4  IDS F   5     -14.226  43.794 172.0650  0.00  0.00     0.000 C
ATOM     83  C5  IDS F   5     -15.101  44.561 171.0720  0.00  0.00     0.000 C
ATOM     84  O5  IDS F   5     -16.161  45.209 171.7440  0.00  0.00     0.000 O
ATOM     85   O  IDS F   5     -17.719  43.477 171.5410  0.00  0.00     0.000 OA
ATOM     86   O  IDS F   5     -15.871  44.360 174.4710  0.00  0.00     0.000 O
ATOM     87   S  IDS F   5     -15.422  43.978 175.9190  0.00  0.00     0.000 S
ATOM     88   O  IDS F   5     -14.857  42.656 175.8570  0.00  0.00     0.000 OA
ATOM     89   O  IDS F   5     -14.446  44.969 176.3110  0.00  0.00     0.000 OA
ATOM     90   O  IDS F   5     -16.630  44.009 176.7010  0.00  0.00     0.000 OA
ATOM     91   O  IDS F   5     -15.546  41.781 172.0040  0.00  0.00     0.000 O
ATOM     93  HD  IDS F   5     -15.420  42.152 171.2310  0.00  0.00     0.000 HD
ATOM     93   O  IDS F   5     -14.527  46.725 170.2770  0.00  0.00     0.000 OA
ATOM     94   O  IDS F   5     -13.501  45.149 169.4050  0.00  0.00     0.000 OA
ATOM     95   C  IDS F   5     -14.335  45.538 170.2000  0.00  0.00     0.000 C
ENDBRANCH 78 82
ENDBRANCH 58 78
ENDBRANCH 57 61
ENDBRANCH 41 57
ENDBRANCH 40 44
ENDBRANCH 20 40
ENDBRANCH 19 23
ENDBRANCH 1 19
TORSDOF 8
ENDMDL
MODEL 54
REMARK VINA RESULT:      -5.6      3.789      7.396
FFDIST PL LJ 2322 74 36 -1
ROOT
ATOM      1  C1  IDS F   1     -15.292  44.292 173.2810  0.00  0.00     0.000 C
ATOM      2  C2  IDS F   1     -16.039  43.446 172.2370  0.00  0.00     0.000 C
ATOM      3  C3  IDS F   1     -15.511  41.994 172.1390  0.00  0.00     0.000 C
ATOM      4  C4  IDS F   1     -15.112  41.378 173.5000  0.00  0.00     0.000 C
ATOM      5  C5  IDS F   1     -14.434  42.431 174.3830  0.00  0.00     0.000 C
ATOM      6  O5  IDS F   1     -15.231  43.565 174.4780  0.00  0.00     0.000 O
ATOM      7   S  IDS F   1     -18.628  42.969 171.6270  0.00  0.00     0.000 S
ATOM      8   O  IDS F   1     -18.233  41.736 171.0170  0.00  0.00     0.000 OA
ATOM      9   O  IDS F   1     -19.787  42.792 172.4530  0.00  0.00     0.000 OA
ATOM     10   O  IDS F   1     -18.760  44.055 170.6840  0.00  0.00     0.000 OA
ATOM     11   O  IDS F   1     -17.411  43.368 172.5680  0.00  0.00     0.000 O
ATOM     12   O  IDS F   1     -14.370  41.978 171.2850  0.00  0.00     0.000 O
ATOM     14  HD  IDS F   1     -13.674  41.464 171.3360  0.00  0.00     0.000 HD
ATOM     14   O  IDS F   1     -16.291  40.929 174.1200  0.00  0.00     0.000 O
ATOM     16  HD  IDS F   1     -15.596  40.415 174.1710  0.00  0.00     0.000 HD
ATOM     16   O  IDS F   1     -14.188  42.732 176.7320  0.00  0.00     0.000 OA
ATOM     17   O  IDS F   1     -13.520  40.897 175.9800  0.00  0.00     0.000 OA
ATOM     18   C  IDS F   1     -14.027  41.988 175.7740  0.00  0.00     0.000 C
ENDROOT
BRANCH 1 19
ATOM     19  O4  SGN F   2     -16.013  45.453 173.5200  0.00  0.00     0.000 O
BRANCH 19 23
ATOM     20  C1  SGN F   2     -16.546  48.500 176.3170  0.00  0.00     0.000 C
ATOM     21  C2  SGN F   2     -15.102  48.120 176.0320  0.00  0.00     0.000 C
ATOM     22  C3  SGN F   2     -14.974  47.439 174.6620  0.00  0.00     0.000 C
ATOM     23  C4  SGN F   2     -15.926  46.202 174.7130  0.00  0.00     0.000 C
ATOM     24  C5  SGN F   2     -17.296  46.734 174.9740  0.00  0.00     0.000 C
ATOM     25  O5  SGN F   2     -17.347  47.355 176.2190  0.00  0.00     0.000 O
ATOM     26   N  SGN F   2     -14.244  49.312 176.2350  0.00  0.00     0.000 N
ATOM     28  HD  SGN F   2     -13.594  49.685 175.8010  0.00  0.00     0.000 HD
ATOM     28   S  SGN F   2     -13.774  49.672 177.8030  0.00  0.00     0.000 S
ATOM     29   O  SGN F   2     -14.960  49.649 178.6280  0.00  0.00     0.000 OA
ATOM     30   O  SGN F   2     -12.837  48.628 178.1540  0.00  0.00     0.000 OA
ATOM     31   O  SGN F   2     -13.142  50.940 177.7610  0.00  0.00     0.000 OA
ATOM     32   O  SGN F   2     -13.623  47.026 174.4920  0.00  0.00     0.000 O
ATOM     34  HD  SGN F   2     -12.973  47.399 174.0580  0.00  0.00     0.000 HD
ATOM     34   C  SGN F   2     -18.331  45.659 174.9950  0.00  0.00     0.000 C
ATOM     35   O  SGN F   2     -17.887  44.744 175.9380  0.00  0.00     0.000 O
ATOM     36   S  SGN F   2     -18.652  43.545 176.4880  0.00  0.00     0.000 S
ATOM     37   O  SGN F   2     -17.788  42.416 176.2500  0.00  0.00     0.000 OA
ATOM     38   O  SGN F   2     -18.857  43.861 177.8850  0.00  0.00     0.000 OA
ATOM     39   O  SGN F   2     -19.905  43.462 175.7480  0.00  0.00     0.000 OA
BRANCH 20 40
ATOM     40  O4  IDS F   3     -17.003  49.492 175.4380  0.00  0.00     0.000 O
BRANCH 40 44
ATOM     41  C1  IDS F   3     -17.502  52.353 173.5000  0.00  0.00     0.000 C
ATOM     42  C2  IDS F   3     -16.162  51.661 173.4920  0.00  0.00     0.000 C
ATOM     43  C3  IDS F   3     -15.615  51.379 174.9430  0.00  0.00     0.000 C
ATOM     44  C4  IDS F   3     -16.692  50.815 175.8510  0.00  0.00     0.000 C
ATOM     45  C5  IDS F   3     -17.936  51.698 175.7570  0.00  0.00     0.000 C
ATOM     46  O5  IDS F   3     -18.404  51.732 174.4280  0.00  0.00     0.000 O
ATOM     47   O  IDS F   3     -14.239  49.556 171.9590  0.00  0.00     0.000 OA
ATOM     48   O  IDS F   3     -16.247  49.013 170.8300  0.00  0.00     0.000 OA
ATOM     49   O  IDS F   3     -15.358  51.252 170.7850  0.00  0.00     0.000 OA
ATOM     50   O  IDS F   3     -16.284  50.439 172.7570  0.00  0.00     0.000 O
ATOM     51   S  IDS F   3     -15.493  50.037 171.5030  0.00  0.00     0.000 S
ATOM     52   O  IDS F   3     -15.170  52.597 175.5310  0.00  0.00     0.000 O
ATOM     54  HD  IDS F   3     -15.207  52.327 174.7090  0.00  0.00     0.000 HD
ATOM     54   C  IDS F   3     -19.071  51.328 176.7180  0.00  0.00     0.000 C
ATOM     55   O  IDS F   3     -20.029  50.656 176.3430  0.00  0.00     0.000 OA
ATOM     56   O  IDS F   3     -19.051  51.686 177.9030  0.00  0.00     0.000 OA
BRANCH 41 57
ATOM     57  O4  SGN F   4     -17.305  53.709 173.7760  0.00  0.00     0.000 O
BRANCH 57 61
ATOM     58  C1  SGN F   4     -19.793  56.906 173.1980  0.00  0.00     0.000 C
ATOM     59  C2  SGN F   4     -19.419  56.592 174.6550  0.00  0.00     0.000 C
ATOM     60  C3  SGN F   4     -18.210  55.677 174.7330  0.00  0.00     0.000 C
ATOM     61  C4  SGN F   4     -18.479  54.447 173.8670  0.00  0.00     0.000 C
ATOM     62  C5  SGN F   4     -18.902  54.879 172.4500  0.00  0.00     0.000 C
ATOM     63  O5  SGN F   4     -20.018  55.714 172.4970  0.00  0.00     0.000 O
ATOM     64   N  SGN F   4     -19.208  57.814 175.4060  0.00  0.00     0.000 N
ATOM     66  HD  SGN F   4     -19.732  57.391 174.8620  0.00  0.00     0.000 HD
ATOM     66   S  SGN F   4     -20.513  58.517 176.0840  0.00  0.00     0.000 S
ATOM     67   O  SGN F   4     -21.316  59.020 174.9850  0.00  0.00     0.000 OA
ATOM     68   O  SGN F   4     -21.224  57.506 176.8640  0.00  0.00     0.000 OA
ATOM     69   O  SGN F   4     -19.940  59.578 176.8820  0.00  0.00     0.000 OA
ATOM     70   O  SGN F   4     -18.024  55.239 176.0710  0.00  0.00     0.000 O
ATOM     72  HD  SGN F   4     -18.549  54.816 175.5280  0.00  0.00     0.000 HD
ATOM     72   C  SGN F   4     -19.314  53.742 171.5510  0.00  0.00     0.000 C
ATOM     73   O  SGN F   4     -20.404  53.094 172.1660  0.00  0.00     0.000 O
ATOM     74   S  SGN F   4     -21.553  52.357 171.4180  0.00  0.00     0.000 S
ATOM     75   O  SGN F   4     -21.016  51.766 170.2370  0.00  0.00     0.000 OA
ATOM     76   O  SGN F   4     -22.088  51.352 172.3350  0.00  0.00     0.000 OA
ATOM     77   O  SGN F   4     -22.451  53.392 171.0840  0.00  0.00     0.000 OA
BRANCH 58 78
ATOM     78  O4  IDS F   5     -18.795  57.685 172.5830  0.00  0.00     0.000 O
BRANCH 78 82
ATOM     79  C1  IDS F   5     -16.868  59.849 170.6460  0.00  0.00     0.000 C
ATOM     80  C2  IDS F   5     -17.246  60.201 172.0780  0.00  0.00     0.000 C
ATOM     81  C3  IDS F   5     -18.752  60.072 172.3190  0.00  0.00     0.000 C
ATOM     82  C4  IDS F   5     -19.281  58.725 171.7830  0.00  0.00     0.000 C
ATOM     83  C5  IDS F   5     -18.810  58.521 170.3420  0.00  0.00     0.000 C
ATOM     84  O5  IDS F   5     -17.402  58.608 170.2630  0.00  0.00     0.000 O
ATOM     85   O  IDS F   5     -17.289  60.899 169.8120  0.00  0.00     0.000 OA
ATOM     86   O  IDS F   5     -16.604  59.297 172.9330  0.00  0.00     0.000 O
ATOM     87   S  IDS F   5     -16.350  59.442 174.4690  0.00  0.00     0.000 S
ATOM     88   O  IDS F   5     -17.432  60.222 175.0100  0.00  0.00     0.000 OA
ATOM     89   O  IDS F   5     -16.329  58.099 175.0010  0.00  0.00     0.000 OA
ATOM     90   O  IDS F   5     -15.090  60.129 174.5730  0.00  0.00     0.000 OA
ATOM     91   O  IDS F   5     -19.399  61.125 171.6330  0.00  0.00     0.000 O
ATOM     93  HD  IDS F   5     -19.705  60.706 170.9390  0.00  0.00     0.000 HD
ATOM     93   O  IDS F   5     -18.545  56.364 169.3810  0.00  0.00     0.000 OA
ATOM     94   O  IDS F   5     -20.496  57.055 169.5090  0.00  0.00     0.000 OA
ATOM     95   C  IDS F   5     -19.309  57.237 169.7040  0.00  0.00     0.000 C
ENDBRANCH 78 82
ENDBRANCH 58 78
ENDBRANCH 57 61
ENDBRANCH 41 57
ENDBRANCH 40 44
ENDBRANCH 20 40
ENDBRANCH 19 23
ENDBRANCH 1 19
TORSDOF 8
ENDMDL
MODEL 55
REMARK VINA RESULT:      -5.6      4.344     12.848
FFDIST PL LJ 2322 74 36 -1
ROOT
ATOM      1  C1  IDS F   1     -21.001  45.437 176.3100  0.00  0.00     0.000 C
ATOM      2  C2  IDS F   1     -20.404  44.073 175.9230  0.00  0.00     0.000 C
ATOM      3  C3  IDS F   1     -20.113  43.167 177.1440  0.00  0.00     0.000 C
ATOM      4  C4  IDS F   1     -21.175  43.263 178.2640  0.00  0.00     0.000 C
ATOM      5  C5  IDS F   1     -21.653  44.711 178.4220  0.00  0.00     0.000 C
ATOM      6  O5  IDS F   1     -22.065  45.218 177.1970  0.00  0.00     0.000 O
ATOM      7   S  IDS F   1     -20.995  42.143 174.1270  0.00  0.00     0.000 S
ATOM      8   O  IDS F   1     -20.298  41.199 174.9470  0.00  0.00     0.000 OA
ATOM      9   O  IDS F   1     -22.247  41.611 173.6740  0.00  0.00     0.000 OA
ATOM     10   O  IDS F   1     -20.184  42.680 173.0590  0.00  0.00     0.000 OA
ATOM     11   O  IDS F   1     -21.302  43.370 175.0880  0.00  0.00     0.000 O
ATOM     12   O  IDS F   1     -18.847  43.528 177.6910  0.00  0.00     0.000 O
ATOM     14  HD  IDS F   1     -18.599  43.501 178.5200  0.00  0.00     0.000 HD
ATOM     14   O  IDS F   1     -22.256  42.446 177.8890  0.00  0.00     0.000 O
ATOM     16  HD  IDS F   1     -22.008  42.420 178.7190  0.00  0.00     0.000 HD
ATOM     16   O  IDS F   1     -23.652  45.731 179.2160  0.00  0.00     0.000 OA
ATOM     17   O  IDS F   1     -22.720  44.413 180.5470  0.00  0.00     0.000 OA
ATOM     18   C  IDS F   1     -22.735  44.958 179.4550  0.00  0.00     0.000 C
ENDROOT
BRANCH 1 19
ATOM     19  O4  SGN F   2     -21.508  46.046 175.1720  0.00  0.00     0.000 O
BRANCH 19 23
ATOM     20  C1  SGN F   2     -18.846  48.571 173.1880  0.00  0.00     0.000 C
ATOM     21  C2  SGN F   2     -19.332  49.067 174.5410  0.00  0.00     0.000 C
ATOM     22  C3  SGN F   2     -19.823  47.900 175.4090  0.00  0.00     0.000 C
ATOM     23  C4  SGN F   2     -20.948  47.199 174.5810  0.00  0.00     0.000 C
ATOM     24  C5  SGN F   2     -20.316  46.752 173.3050  0.00  0.00     0.000 C
ATOM     25  O5  SGN F   2     -19.875  47.848 172.5700  0.00  0.00     0.000 O
ATOM     26   N  SGN F   2     -18.278  49.914 175.1480  0.00  0.00     0.000 N
ATOM     28  HD  SGN F   2     -17.918  49.983 175.9330  0.00  0.00     0.000 HD
ATOM     28   S  SGN F   2     -18.194  51.516 174.6620  0.00  0.00     0.000 S
ATOM     29   O  SGN F   2     -18.207  51.532 173.2160  0.00  0.00     0.000 OA
ATOM     30   O  SGN F   2     -19.370  52.134 175.2310  0.00  0.00     0.000 OA
ATOM     31   O  SGN F   2     -17.006  52.052 175.2190  0.00  0.00     0.000 OA
ATOM     32   O  SGN F   2     -20.349  48.432 176.6190  0.00  0.00     0.000 O
ATOM     34  HD  SGN F   2     -19.989  48.501 177.4040  0.00  0.00     0.000 HD
ATOM     34   C  SGN F   2     -21.268  46.010 172.4260  0.00  0.00     0.000 C
ATOM     35   O  SGN F   2     -22.348  46.863 172.2580  0.00  0.00     0.000 O
ATOM     36   S  SGN F   2     -23.525  46.680 171.3060  0.00  0.00     0.000 S
ATOM     37   O  SGN F   2     -24.694  46.763 172.1440  0.00  0.00     0.000 OA
ATOM     38   O  SGN F   2     -23.389  47.763 170.3560  0.00  0.00     0.000 OA
ATOM     39   O  SGN F   2     -23.370  45.372 170.6820  0.00  0.00     0.000 OA
BRANCH 20 40
ATOM     40  O4  IDS F   3     -17.698  47.776 173.3110  0.00  0.00     0.000 O
BRANCH 40 44
ATOM     41  C1  IDS F   3     -14.408  46.630 173.5590  0.00  0.00     0.000 C
ATOM     42  C2  IDS F   3     -14.806  47.929 174.2140  0.00  0.00     0.000 C
ATOM     43  C3  IDS F   3     -15.581  48.892 173.2360  0.00  0.00     0.000 C
ATOM     44  C4  IDS F   3     -16.640  48.153 172.4400  0.00  0.00     0.000 C
ATOM     45  C5  IDS F   3     -16.014  46.909 171.8100  0.00  0.00     0.000 C
ATOM     46  O5  IDS F   3     -15.499  46.066 172.8160  0.00  0.00     0.000 O
ATOM     47   O  IDS F   3     -15.728  49.375 176.9590  0.00  0.00     0.000 OA
ATOM     48   O  IDS F   3     -16.061  47.141 177.6650  0.00  0.00     0.000 OA
ATOM     49   O  IDS F   3     -13.901  47.904 176.9200  0.00  0.00     0.000 OA
ATOM     50   O  IDS F   3     -15.607  47.633 175.3630  0.00  0.00     0.000 O
ATOM     51   S  IDS F   3     -15.309  48.028 176.8170  0.00  0.00     0.000 S
ATOM     52   O  IDS F   3     -14.669  49.452 172.2960  0.00  0.00     0.000 O
ATOM     54  HD  IDS F   3     -14.569  49.181 173.1120  0.00  0.00     0.000 HD
ATOM     54   C  IDS F   3     -16.933  46.125 170.8670  0.00  0.00     0.000 C
ATOM     55   O  IDS F   3     -17.529  45.121 171.2500  0.00  0.00     0.000 OA
ATOM     56   O  IDS F   3     -17.109  46.485 169.6960  0.00  0.00     0.000 OA
BRANCH 41 57
ATOM     57  O4  SGN F   4     -13.283  46.857 172.7610  0.00  0.00     0.000 O
BRANCH 57 61
ATOM     58  C1  SGN F   4      -9.591  45.108 172.5190  0.00  0.00     0.000 C
ATOM     59  C2  SGN F   4     -10.607  44.700 171.4410  0.00  0.00     0.000 C
ATOM     60  C3  SGN F   4     -11.769  45.675 171.3760  0.00  0.00     0.000 C
ATOM     61  C4  SGN F   4     -12.356  45.821 172.7780  0.00  0.00     0.000 C
ATOM     62  C5  SGN F   4     -11.243  46.172 173.7850  0.00  0.00     0.000 C
ATOM     63  O5  SGN F   4     -10.231  45.212 173.7600  0.00  0.00     0.000 O
ATOM     64   N  SGN F   4      -9.959  44.560 170.1510  0.00  0.00     0.000 N
ATOM     66  HD  SGN F   4      -9.929  44.357 170.9930  0.00  0.00     0.000 HD
ATOM     66   S  SGN F   4      -9.283  43.118 169.8000  0.00  0.00     0.000 S
ATOM     67   O  SGN F   4      -8.140  42.985 170.6840  0.00  0.00     0.000 OA
ATOM     68   O  SGN F   4     -10.280  42.076 170.0340  0.00  0.00     0.000 OA
ATOM     69   O  SGN F   4      -8.898  43.263 168.4140  0.00  0.00     0.000 OA
ATOM     70   O  SGN F   4     -12.783  45.157 170.5270  0.00  0.00     0.000 O
ATOM     72  HD  SGN F   4     -12.753  44.954 171.3690  0.00  0.00     0.000 HD
ATOM     72   C  SGN F   4     -11.695  46.214 175.2220  0.00  0.00     0.000 C
ATOM     73   O  SGN F   4     -12.201  44.938 175.5410  0.00  0.00     0.000 O
ATOM     74   S  SGN F   4     -12.167  44.282 176.9510  0.00  0.00     0.000 S
ATOM     75   O  SGN F   4     -12.304  45.309 177.9300  0.00  0.00     0.000 OA
ATOM     76   O  SGN F   4     -13.270  43.324 177.0070  0.00  0.00     0.000 OA
ATOM     77   O  SGN F   4     -10.880  43.708 177.0200  0.00  0.00     0.000 OA
BRANCH 58 78
ATOM     78  O4  IDS F   5      -8.947  46.309 172.1690  0.00  0.00     0.000 O
BRANCH 78 82
ATOM     79  C1  IDS F   5      -6.777  48.982 171.6220  0.00  0.00     0.000 C
ATOM     80  C2  IDS F   5      -7.176  48.049 170.4870  0.00  0.00     0.000 C
ATOM     81  C3  IDS F   5      -6.956  46.579 170.8520  0.00  0.00     0.000 C
ATOM     82  C4  IDS F   5      -7.551  46.262 172.2400  0.00  0.00     0.000 C
ATOM     83  C5  IDS F   5      -7.058  47.289 173.2610  0.00  0.00     0.000 C
ATOM     84  O5  IDS F   5      -7.371  48.599 172.8360  0.00  0.00     0.000 O
ATOM     85   O  IDS F   5      -5.373  49.007 171.6930  0.00  0.00     0.000 OA
ATOM     86   O  IDS F   5      -8.544  48.221 170.2430  0.00  0.00     0.000 O
ATOM     87   S  IDS F   5      -9.354  47.805 168.9720  0.00  0.00     0.000 S
ATOM     88   O  IDS F   5      -8.717  46.636 168.4230  0.00  0.00     0.000 OA
ATOM     89   O  IDS F   5     -10.699  47.531 169.4230  0.00  0.00     0.000 OA
ATOM     90   O  IDS F   5      -9.255  48.934 168.0850  0.00  0.00     0.000 OA
ATOM     91   O  IDS F   5      -5.563  46.337 170.8840  0.00  0.00     0.000 O
ATOM     93  HD  IDS F   5      -5.415  46.335 171.7370  0.00  0.00     0.000 HD
ATOM     93   O  IDS F   5      -8.289  47.830 175.2200  0.00  0.00     0.000 OA
ATOM     94   O  IDS F   5      -7.233  46.047 175.2890  0.00  0.00     0.000 OA
ATOM     95   C  IDS F   5      -7.556  47.045 174.6740  0.00  0.00     0.000 C
ENDBRANCH 78 82
ENDBRANCH 58 78
ENDBRANCH 57 61
ENDBRANCH 41 57
ENDBRANCH 40 44
ENDBRANCH 20 40
ENDBRANCH 19 23
ENDBRANCH 1 19
TORSDOF 8
ENDMDL
MODEL 56
REMARK VINA RESULT:      -5.6      4.799      6.751
FFDIST PL LJ 2322 74 36 -1
ROOT
ATOM      1  C1  IDS F   1      -9.076  47.252 171.6510  0.00  0.00     0.000 C
ATOM      2  C2  IDS F   1      -8.568  47.611 170.2450  0.00  0.00     0.000 C
ATOM      3  C3  IDS F   1      -8.886  49.069 169.8360  0.00  0.00     0.000 C
ATOM      4  C4  IDS F   1      -8.760  50.088 170.9920  0.00  0.00     0.000 C
ATOM      5  C5  IDS F   1      -9.282  49.479 172.2980  0.00  0.00     0.000 C
ATOM      6  O5  IDS F   1      -8.665  48.257 172.5390  0.00  0.00     0.000 O
ATOM      7   S  IDS F   1      -6.246  47.317 168.8940  0.00  0.00     0.000 S
ATOM      8   O  IDS F   1      -6.626  48.409 168.0500  0.00  0.00     0.000 OA
ATOM      9   O  IDS F   1      -4.878  47.433 169.3080  0.00  0.00     0.000 OA
ATOM     10   O  IDS F   1      -6.564  46.024 168.3330  0.00  0.00     0.000 OA
ATOM     11   O  IDS F   1      -7.164  47.459 170.1830  0.00  0.00     0.000 O
ATOM     12   O  IDS F   1     -10.218  49.124 169.3310  0.00  0.00     0.000 O
ATOM     14  HD  IDS F   1     -10.783  49.777 169.3910  0.00  0.00     0.000 HD
ATOM     14   O  IDS F   1      -7.396  50.402 171.1290  0.00  0.00     0.000 O
ATOM     16  HD  IDS F   1      -7.961  51.056 171.1890  0.00  0.00     0.000 HD
ATOM     16   O  IDS F   1      -8.843  49.854 174.6080  0.00  0.00     0.000 OA
ATOM     17   O  IDS F   1      -9.437  51.536 173.5150  0.00  0.00     0.000 OA
ATOM     18   C  IDS F   1      -9.179  50.344 173.5380  0.00  0.00     0.000 C
ENDROOT
BRANCH 1 19
ATOM     19  O4  SGN F   2      -8.492  46.060 172.0510  0.00  0.00     0.000 O
BRANCH 19 23
ATOM     20  C1  SGN F   2     -11.513  43.821 173.8530  0.00  0.00     0.000 C
ATOM     21  C2  SGN F   2     -10.478  44.402 174.8020  0.00  0.00     0.000 C
ATOM     22  C3  SGN F   2      -9.772  45.611 174.1700  0.00  0.00     0.000 C
ATOM     23  C4  SGN F   2      -9.147  45.087 172.8370  0.00  0.00     0.000 C
ATOM     24  C5  SGN F   2     -10.280  44.576 172.0110  0.00  0.00     0.000 C
ATOM     25  O5  SGN F   2     -10.891  43.496 172.6410  0.00  0.00     0.000 O
ATOM     26   N  SGN F   2     -11.117  44.652 176.1160  0.00  0.00     0.000 N
ATOM     28  HD  SGN F   2     -11.117  45.302 176.6880  0.00  0.00     0.000 HD
ATOM     28   S  SGN F   2     -11.260  43.356 177.1680  0.00  0.00     0.000 S
ATOM     29   O  SGN F   2     -11.838  42.257 176.4270  0.00  0.00     0.000 OA
ATOM     30   O  SGN F   2      -9.908  43.081 177.5970  0.00  0.00     0.000 OA
ATOM     31   O  SGN F   2     -12.067  43.792 178.2490  0.00  0.00     0.000 OA
ATOM     32   O  SGN F   2      -8.756  46.053 175.0610  0.00  0.00     0.000 O
ATOM     34  HD  SGN F   2      -8.756  46.703 175.6330  0.00  0.00     0.000 HD
ATOM     34   C  SGN F   2      -9.836  44.088 170.6720  0.00  0.00     0.000 C
ATOM     35   O  SGN F   2      -8.853  43.146 170.9360  0.00  0.00     0.000 O
ATOM     36   S  SGN F   2      -8.188  42.207 169.9360  0.00  0.00     0.000 S
ATOM     37   O  SGN F   2      -6.776  42.455 170.0790  0.00  0.00     0.000 OA
ATOM     38   O  SGN F   2      -8.611  40.886 170.3490  0.00  0.00     0.000 OA
ATOM     39   O  SGN F   2      -8.692  42.562 168.6150  0.00  0.00     0.000 OA
BRANCH 20 40
ATOM     40  O4  IDS F   3     -12.572  44.713 173.6340  0.00  0.00     0.000 O
BRANCH 40 44
ATOM     41  C1  IDS F   3     -15.529  46.528 174.0290  0.00  0.00     0.000 C
ATOM     42  C2  IDS F   3     -14.759  46.068 175.2410  0.00  0.00     0.000 C
ATOM     43  C3  IDS F   3     -14.390  44.536 175.1830  0.00  0.00     0.000 C
ATOM     44  C4  IDS F   3     -13.859  44.137 173.8190  0.00  0.00     0.000 C
ATOM     45  C5  IDS F   3     -14.817  44.644 172.7410  0.00  0.00     0.000 C
ATOM     46  O5  IDS F   3     -14.929  46.047 172.8170  0.00  0.00     0.000 O
ATOM     47   O  IDS F   3     -12.602  46.878 177.5140  0.00  0.00     0.000 OA
ATOM     48   O  IDS F   3     -12.223  48.712 176.0660  0.00  0.00     0.000 OA
ATOM     49   O  IDS F   3     -14.404  48.288 176.9980  0.00  0.00     0.000 OA
ATOM     50   O  IDS F   3     -13.575  46.864 175.3580  0.00  0.00     0.000 O
ATOM     51   S  IDS F   3     -13.174  47.746 176.5490  0.00  0.00     0.000 S
ATOM     52   O  IDS F   3     -15.557  43.755 175.4200  0.00  0.00     0.000 O
ATOM     54  HD  IDS F   3     -15.321  44.544 175.6870  0.00  0.00     0.000 HD
ATOM     54   C  IDS F   3     -14.480  44.206 171.3120  0.00  0.00     0.000 C
ATOM     55   O  IDS F   3     -13.881  44.954 170.5420  0.00  0.00     0.000 OA
ATOM     56   O  IDS F   3     -14.791  43.083 170.8940  0.00  0.00     0.000 OA
BRANCH 41 57
ATOM     57  O4  SGN F   4     -16.860  46.120 174.1610  0.00  0.00     0.000 O
BRANCH 57 61
ATOM     58  C1  SGN F   4     -20.547  47.850 173.7630  0.00  0.00     0.000 C
ATOM     59  C2  SGN F   4     -19.882  47.363 172.4660  0.00  0.00     0.000 C
ATOM     60  C3  SGN F   4     -18.743  46.401 172.7540  0.00  0.00     0.000 C
ATOM     61  C4  SGN F   4     -17.789  47.065 173.7450  0.00  0.00     0.000 C
ATOM     62  C5  SGN F   4     -18.568  47.568 174.9750  0.00  0.00     0.000 C
ATOM     63  O5  SGN F   4     -19.588  48.441 174.5950  0.00  0.00     0.000 O
ATOM     64   N  SGN F   4     -20.864  46.771 171.5770  0.00  0.00     0.000 N
ATOM     66  HD  SGN F   4     -20.671  47.450 172.0800  0.00  0.00     0.000 HD
ATOM     66   S  SGN F   4     -21.670  47.771 170.5720  0.00  0.00     0.000 S
ATOM     67   O  SGN F   4     -22.532  48.578 171.4160  0.00  0.00     0.000 OA
ATOM     68   O  SGN F   4     -20.691  48.583 169.8530  0.00  0.00     0.000 OA
ATOM     69   O  SGN F   4     -22.413  46.862 169.7290  0.00  0.00     0.000 OA
ATOM     70   O  SGN F   4     -18.022  46.140 171.5580  0.00  0.00     0.000 O
ATOM     72  HD  SGN F   4     -17.830  46.818 172.0610  0.00  0.00     0.000 HD
ATOM     72   C  SGN F   4     -17.739  48.353 175.9580  0.00  0.00     0.000 C
ATOM     73   O  SGN F   4     -17.219  49.469 175.2720  0.00  0.00     0.000 O
ATOM     74   S  SGN F   4     -16.893  50.849 175.9130  0.00  0.00     0.000 S
ATOM     75   O  SGN F   4     -16.450  50.632 177.2500  0.00  0.00     0.000 OA
ATOM     76   O  SGN F   4     -15.858  51.471 175.0900  0.00  0.00     0.000 OA
ATOM     77   O  SGN F   4     -18.135  51.518 175.9100  0.00  0.00     0.000 OA
BRANCH 58 78
ATOM     78  O4  IDS F   5     -21.211  46.793 174.4120  0.00  0.00     0.000 O
BRANCH 78 82
ATOM     79  C1  IDS F   5     -23.244  44.723 176.3440  0.00  0.00     0.000 C
ATOM     80  C2  IDS F   5     -23.390  44.776 174.8300  0.00  0.00     0.000 C
ATOM     81  C3  IDS F   5     -23.540  46.211 174.3200  0.00  0.00     0.000 C
ATOM     82  C4  IDS F   5     -22.463  47.129 174.9370  0.00  0.00     0.000 C
ATOM     83  C5  IDS F   5     -22.442  46.954 176.4560  0.00  0.00     0.000 C
ATOM     84  O5  IDS F   5     -22.241  45.597 176.7950  0.00  0.00     0.000 O
ATOM     85   O  IDS F   5     -24.499  45.002 176.9140  0.00  0.00     0.000 OA
ATOM     86   O  IDS F   5     -22.224  44.248 174.2620  0.00  0.00     0.000 O
ATOM     87   S  IDS F   5     -22.016  43.730 172.8010  0.00  0.00     0.000 S
ATOM     88   O  IDS F   5     -22.891  44.491 171.9490  0.00  0.00     0.000 OA
ATOM     89   O  IDS F   5     -20.623  43.954 172.4900  0.00  0.00     0.000 OA
ATOM     90   O  IDS F   5     -22.387  42.340 172.8450  0.00  0.00     0.000 OA
ATOM     91   O  IDS F   5     -24.818  46.682 174.7020  0.00  0.00     0.000 O
ATOM     93  HD  IDS F   5     -24.613  47.184 175.3770  0.00  0.00     0.000 HD
ATOM     93   O  IDS F   5     -20.502  47.375 177.7600  0.00  0.00     0.000 OA
ATOM     94   O  IDS F   5     -21.555  49.054 177.1520  0.00  0.00     0.000 OA
ATOM     95   C  IDS F   5     -21.440  47.843 177.1680  0.00  0.00     0.000 C
ENDBRANCH 78 82
ENDBRANCH 58 78
ENDBRANCH 57 61
ENDBRANCH 41 57
ENDBRANCH 40 44
ENDBRANCH 20 40
ENDBRANCH 19 23
ENDBRANCH 1 19
TORSDOF 8
ENDMDL
MODEL 57
REMARK VINA RESULT:      -5.6      3.623      7.007
FFDIST PL LJ 2322 74 36 -1
ROOT
ATOM      1  C1  IDS F   1      -8.964  45.186 173.4370  0.00  0.00     0.000 C
ATOM      2  C2  IDS F   1      -8.048  45.955 172.4710  0.00  0.00     0.000 C
ATOM      3  C3  IDS F   1      -6.650  45.309 172.3140  0.00  0.00     0.000 C
ATOM      4  C4  IDS F   1      -6.671  43.763 172.3020  0.00  0.00     0.000 C
ATOM      5  C5  IDS F   1      -7.700  43.236 173.3080  0.00  0.00     0.000 C
ATOM      6  O5  IDS F   1      -8.937  43.828 173.0850  0.00  0.00     0.000 O
ATOM      7   S  IDS F   1      -8.289  46.992 169.9880  0.00  0.00     0.000 S
ATOM      8   O  IDS F   1      -6.867  46.917 169.8430  0.00  0.00     0.000 OA
ATOM      9   O  IDS F   1      -8.955  46.512 168.8130  0.00  0.00     0.000 OA
ATOM     10   O  IDS F   1      -8.752  48.292 170.4150  0.00  0.00     0.000 OA
ATOM     11   O  IDS F   1      -8.630  46.004 171.1850  0.00  0.00     0.000 O
ATOM     12   O  IDS F   1      -5.821  45.740 173.3900  0.00  0.00     0.000 O
ATOM     14  HD  IDS F   1      -5.187  45.300 173.7830  0.00  0.00     0.000 HD
ATOM     14   O  IDS F   1      -7.027  43.357 171.0030  0.00  0.00     0.000 O
ATOM     16  HD  IDS F   1      -6.394  42.916 171.3960  0.00  0.00     0.000 HD
ATOM     16   O  IDS F   1      -8.986  41.241 173.4900  0.00  0.00     0.000 OA
ATOM     17   O  IDS F   1      -6.917  40.972 173.3370  0.00  0.00     0.000 OA
ATOM     18   C  IDS F   1      -7.871  41.732 173.3770  0.00  0.00     0.000 C
ENDROOT
BRANCH 1 19
ATOM     19  O4  SGN F   2     -10.265  45.643 173.2840  0.00  0.00     0.000 O
BRANCH 19 23
ATOM     20  C1  SGN F   2     -13.049  48.309 174.8740  0.00  0.00     0.000 C
ATOM     21  C2  SGN F   2     -11.686  48.902 174.5560  0.00  0.00     0.000 C
ATOM     22  C3  SGN F   2     -10.950  48.053 173.5090  0.00  0.00     0.000 C
ATOM     23  C4  SGN F   2     -10.860  46.616 174.1160  0.00  0.00     0.000 C
ATOM     24  C5  SGN F   2     -12.264  46.167 174.3480  0.00  0.00     0.000 C
ATOM     25  O5  SGN F   2     -12.885  46.982 175.2900  0.00  0.00     0.000 O
ATOM     26   N  SGN F   2     -11.853  50.335 174.2130  0.00  0.00     0.000 N
ATOM     28  HD  SGN F   2     -11.550  50.860 173.5950  0.00  0.00     0.000 HD
ATOM     28   S  SGN F   2     -11.962  51.427 175.4790  0.00  0.00     0.000 S
ATOM     29   O  SGN F   2     -12.949  50.921 176.4060  0.00  0.00     0.000 OA
ATOM     30   O  SGN F   2     -10.635  51.461 176.0500  0.00  0.00     0.000 OA
ATOM     31   O  SGN F   2     -12.312  52.678 174.9110  0.00  0.00     0.000 OA
ATOM     32   O  SGN F   2      -9.650  48.601 173.3220  0.00  0.00     0.000 O
ATOM     34  HD  SGN F   2      -9.347  49.126 172.7040  0.00  0.00     0.000 HD
ATOM     34   C  SGN F   2     -12.337  44.775 174.8800  0.00  0.00     0.000 C
ATOM     35   O  SGN F   2     -11.545  44.778 176.0190  0.00  0.00     0.000 O
ATOM     36   S  SGN F   2     -11.411  43.662 177.0500  0.00  0.00     0.000 S
ATOM     37   O  SGN F   2      -9.998  43.387 177.1150  0.00  0.00     0.000 OA
ATOM     38   O  SGN F   2     -11.970  44.224 178.2600  0.00  0.00     0.000 OA
ATOM     39   O  SGN F   2     -12.185  42.530 176.5560  0.00  0.00     0.000 OA
BRANCH 20 40
ATOM     40  O4  IDS F   3     -13.910  48.372 173.7690  0.00  0.00     0.000 O
BRANCH 40 44
ATOM     41  C1  IDS F   3     -16.790  48.651 171.8140  0.00  0.00     0.000 C
ATOM     42  C2  IDS F   3     -15.495  49.262 171.3410  0.00  0.00     0.000 C
ATOM     43  C3  IDS F   3     -14.804  50.153 172.4420  0.00  0.00     0.000 C
ATOM     44  C4  IDS F   3     -14.807  49.474 173.7990  0.00  0.00     0.000 C
ATOM     45  C5  IDS F   3     -16.221  48.988 174.1120  0.00  0.00     0.000 C
ATOM     46  O5  IDS F   3     -16.648  48.078 173.1230  0.00  0.00     0.000 O
ATOM     47   O  IDS F   3     -12.874  48.883 169.4780  0.00  0.00     0.000 OA
ATOM     48   O  IDS F   3     -13.619  46.638 169.4170  0.00  0.00     0.000 OA
ATOM     49   O  IDS F   3     -15.024  48.439 168.6500  0.00  0.00     0.000 OA
ATOM     50   O  IDS F   3     -14.618  48.208 170.9280  0.00  0.00     0.000 O
ATOM     51   S  IDS F   3     -13.999  48.021 169.5350  0.00  0.00     0.000 S
ATOM     52   O  IDS F   3     -15.521  51.375 172.5860  0.00  0.00     0.000 O
ATOM     54  HD  IDS F   3     -15.407  50.844 171.9120  0.00  0.00     0.000 HD
ATOM     54   C  IDS F   3     -16.411  48.392 175.5110  0.00  0.00     0.000 C
ATOM     55   O  IDS F   3     -16.402  47.176 175.6900  0.00  0.00     0.000 OA
ATOM     56   O  IDS F   3     -16.568  49.117 176.5020  0.00  0.00     0.000 OA
BRANCH 41 57
ATOM     57  O4  SGN F   4     -17.790  49.627 171.7660  0.00  0.00     0.000 O
BRANCH 57 61
ATOM     58  C1  SGN F   4     -21.830  49.176 171.2970  0.00  0.00     0.000 C
ATOM     59  C2  SGN F   4     -21.369  49.850 172.5990  0.00  0.00     0.000 C
ATOM     60  C3  SGN F   4     -19.930  50.325 172.4980  0.00  0.00     0.000 C
ATOM     61  C4  SGN F   4     -19.064  49.150 172.0510  0.00  0.00     0.000 C
ATOM     62  C5  SGN F   4     -19.650  48.515 170.7750  0.00  0.00     0.000 C
ATOM     63  O5  SGN F   4     -20.971  48.117 170.9800  0.00  0.00     0.000 O
ATOM     64   N  SGN F   4     -22.262  50.934 172.9600  0.00  0.00     0.000 N
ATOM     66  HD  SGN F   4     -22.206  50.106 172.7120  0.00  0.00     0.000 HD
ATOM     66   S  SGN F   4     -23.585  50.561 173.8360  0.00  0.00     0.000 S
ATOM     67   O  SGN F   4     -24.446  49.794 172.9560  0.00  0.00     0.000 OA
ATOM     68   O  SGN F   4     -23.159  49.785 174.9990  0.00  0.00     0.000 OA
ATOM     69   O  SGN F   4     -24.140  51.855 174.1650  0.00  0.00     0.000 OA
ATOM     70   O  SGN F   4     -19.474  50.746 173.7760  0.00  0.00     0.000 O
ATOM     72  HD  SGN F   4     -19.418  49.918 173.5280  0.00  0.00     0.000 HD
ATOM     72   C  SGN F   4     -18.941  47.266 170.3200  0.00  0.00     0.000 C
ATOM     73   O  SGN F   4     -19.029  46.328 171.3670  0.00  0.00     0.000 O
ATOM     74   S  SGN F   4     -19.067  44.782 171.1920  0.00  0.00     0.000 S
ATOM     75   O  SGN F   4     -18.268  44.437 170.0630  0.00  0.00     0.000 OA
ATOM     76   O  SGN F   4     -18.548  44.196 172.4270  0.00  0.00     0.000 OA
ATOM     77   O  SGN F   4     -20.426  44.510 170.9320  0.00  0.00     0.000 OA
BRANCH 58 78
ATOM     78  O4  IDS F   5     -21.902  50.112 170.2480  0.00  0.00     0.000 O
BRANCH 78 82
ATOM     79  C1  IDS F   5     -22.663  52.059 167.4590  0.00  0.00     0.000 C
ATOM     80  C2  IDS F   5     -22.975  52.547 168.8670  0.00  0.00     0.000 C
ATOM     81  C3  IDS F   5     -23.767  51.511 169.6680  0.00  0.00     0.000 C
ATOM     82  C4  IDS F   5     -23.117  50.116 169.5550  0.00  0.00     0.000 C
ATOM     83  C5  IDS F   5     -22.865  49.779 168.0840  0.00  0.00     0.000 C
ATOM     84  O5  IDS F   5     -22.079  50.782 167.4750  0.00  0.00     0.000 O
ATOM     85   O  IDS F   5     -23.851  52.100 166.7090  0.00  0.00     0.000 OA
ATOM     86   O  IDS F   5     -21.762  52.757 169.5340  0.00  0.00     0.000 O
ATOM     87   S  IDS F   5     -21.510  53.596 170.8290  0.00  0.00     0.000 S
ATOM     88   O  IDS F   5     -22.708  53.526 171.6240  0.00  0.00     0.000 OA
ATOM     89   O  IDS F   5     -20.381  52.984 171.4910  0.00  0.00     0.000 OA
ATOM     90   O  IDS F   5     -21.256  54.933 170.3610  0.00  0.00     0.000 OA
ATOM     91   O  IDS F   5     -25.076  51.452 169.1370  0.00  0.00     0.000 O
ATOM     93  HD  IDS F   5     -25.032  50.723 168.6710  0.00  0.00     0.000 HD
ATOM     93   O  IDS F   5     -21.156  48.280 167.3960  0.00  0.00     0.000 OA
ATOM     94   O  IDS F   5     -22.874  47.396 168.1470  0.00  0.00     0.000 OA
ATOM     95   C  IDS F   5     -22.261  48.406 167.8590  0.00  0.00     0.000 C
ENDBRANCH 78 82
ENDBRANCH 58 78
ENDBRANCH 57 61
ENDBRANCH 41 57
ENDBRANCH 40 44
ENDBRANCH 20 40
ENDBRANCH 19 23
ENDBRANCH 1 19
TORSDOF 8
ENDMDL
MODEL 58
REMARK VINA RESULT:      -5.6      4.026      8.537
FFDIST PL LJ 2322 74 36 -1
ROOT
ATOM      1  C1  IDS F   1     -18.111  44.052 176.1580  0.00  0.00     0.000 C
ATOM      2  C2  IDS F   1     -19.612  44.306 175.9440  0.00  0.00     0.000 C
ATOM      3  C3  IDS F   1     -20.505  43.149 176.4560  0.00  0.00     0.000 C
ATOM      4  C4  IDS F   1     -20.005  42.505 177.7700  0.00  0.00     0.000 C
ATOM      5  C5  IDS F   1     -18.475  42.410 177.7670  0.00  0.00     0.000 C
ATOM      6  O5  IDS F   1     -17.916  43.651 177.4880  0.00  0.00     0.000 O
ATOM      7   S  IDS F   1     -21.313  46.355 176.4030  0.00  0.00     0.000 S
ATOM      8   O  IDS F   1     -22.397  45.420 176.4250  0.00  0.00     0.000 OA
ATOM      9   O  IDS F   1     -21.412  47.289 177.4860  0.00  0.00     0.000 OA
ATOM     10   O  IDS F   1     -21.131  46.989 175.1180  0.00  0.00     0.000 OA
ATOM     11   O  IDS F   1     -20.010  45.474 176.6320  0.00  0.00     0.000 O
ATOM     12   O  IDS F   1     -20.568  42.139 175.4530  0.00  0.00     0.000 O
ATOM     14  HD  IDS F   1     -20.637  41.283 175.5650  0.00  0.00     0.000 HD
ATOM     14   O  IDS F   1     -20.426  43.328 178.8290  0.00  0.00     0.000 O
ATOM     16  HD  IDS F   1     -20.495  42.472 178.9410  0.00  0.00     0.000 HD
ATOM     16   O  IDS F   1     -16.804  42.336 179.4620  0.00  0.00     0.000 OA
ATOM     17   O  IDS F   1     -18.295  40.875 179.5980  0.00  0.00     0.000 OA
ATOM     18   C  IDS F   1     -17.830  41.841 179.0150  0.00  0.00     0.000 C
ENDROOT
BRANCH 1 19
ATOM     19  O4  SGN F   2     -17.421  45.238 175.9610  0.00  0.00     0.000 O
BRANCH 19 23
ATOM     20  C1  SGN F   2     -14.944  47.197 173.2370  0.00  0.00     0.000 C
ATOM     21  C2  SGN F   2     -16.069  46.377 172.6250  0.00  0.00     0.000 C
ATOM     22  C3  SGN F   2     -17.207  46.169 173.6340  0.00  0.00     0.000 C
ATOM     23  C4  SGN F   2     -16.555  45.473 174.8720  0.00  0.00     0.000 C
ATOM     24  C5  SGN F   2     -15.498  46.402 175.3690  0.00  0.00     0.000 C
ATOM     25  O5  SGN F   2     -14.505  46.567 174.4080  0.00  0.00     0.000 O
ATOM     26   N  SGN F   2     -16.463  46.992 171.3350  0.00  0.00     0.000 N
ATOM     28  HD  SGN F   2     -17.214  47.186 170.9480  0.00  0.00     0.000 HD
ATOM     28   S  SGN F   2     -15.543  46.621 169.9850  0.00  0.00     0.000 S
ATOM     29   O  SGN F   2     -14.155  46.822 170.3370  0.00  0.00     0.000 OA
ATOM     30   O  SGN F   2     -15.846  45.236 169.7040  0.00  0.00     0.000 OA
ATOM     31   O  SGN F   2     -15.987  47.470 168.9400  0.00  0.00     0.000 OA
ATOM     32   O  SGN F   2     -18.183  45.322 173.0390  0.00  0.00     0.000 O
ATOM     34  HD  SGN F   2     -18.933  45.516 172.6520  0.00  0.00     0.000 HD
ATOM     34   C  SGN F   2     -14.819  45.889 176.5950  0.00  0.00     0.000 C
ATOM     35   O  SGN F   2     -14.354  44.628 176.2530  0.00  0.00     0.000 O
ATOM     36   S  SGN F   2     -13.432  43.733 177.0750  0.00  0.00     0.000 S
ATOM     37   O  SGN F   2     -14.146  42.489 177.2060  0.00  0.00     0.000 OA
ATOM     38   O  SGN F   2     -12.220  43.651 176.2900  0.00  0.00     0.000 OA
ATOM     39   O  SGN F   2     -13.219  44.400 178.3540  0.00  0.00     0.000 OA
BRANCH 20 40
ATOM     40  O4  IDS F   3     -15.353  48.509 173.5140  0.00  0.00     0.000 O
BRANCH 40 44
ATOM     41  C1  IDS F   3     -16.622  51.718 172.9770  0.00  0.00     0.000 C
ATOM     42  C2  IDS F   3     -16.970  50.600 172.0250  0.00  0.00     0.000 C
ATOM     43  C3  IDS F   3     -15.701  49.805 171.5300  0.00  0.00     0.000 C
ATOM     44  C4  IDS F   3     -14.755  49.488 172.6730  0.00  0.00     0.000 C
ATOM     45  C5  IDS F   3     -14.486  50.765 173.4690  0.00  0.00     0.000 C
ATOM     46  O5  IDS F   3     -15.695  51.278 173.9800  0.00  0.00     0.000 O
ATOM     47   O  IDS F   3     -19.152  48.351 171.2140  0.00  0.00     0.000 OA
ATOM     48   O  IDS F   3     -20.029  48.871 173.3490  0.00  0.00     0.000 OA
ATOM     49   O  IDS F   3     -19.798  50.564 171.6500  0.00  0.00     0.000 OA
ATOM     50   O  IDS F   3     -17.891  49.718 172.6760  0.00  0.00     0.000 O
ATOM     51   S  IDS F   3     -19.306  49.355 172.2040  0.00  0.00     0.000 S
ATOM     52   O  IDS F   3     -14.976  50.599 170.5970  0.00  0.00     0.000 O
ATOM     54  HD  IDS F   3     -15.817  50.562 170.7980  0.00  0.00     0.000 HD
ATOM     54   C  IDS F   3     -13.443  50.630 174.5830  0.00  0.00     0.000 C
ATOM     55   O  IDS F   3     -13.780  50.469 175.7540  0.00  0.00     0.000 OA
ATOM     56   O  IDS F   3     -12.230  50.668 174.3360  0.00  0.00     0.000 OA
BRANCH 41 57
ATOM     57  O4  SGN F   4     -16.133  52.799 172.2380  0.00  0.00     0.000 O
BRANCH 57 61
ATOM     58  C1  SGN F   4     -16.701  56.825 172.7100  0.00  0.00     0.000 C
ATOM     59  C2  SGN F   4     -15.267  56.312 172.9190  0.00  0.00     0.000 C
ATOM     60  C3  SGN F   4     -15.085  54.920 172.3400  0.00  0.00     0.000 C
ATOM     61  C4  SGN F   4     -16.173  54.013 172.9130  0.00  0.00     0.000 C
ATOM     62  C5  SGN F   4     -17.560  54.650 172.7010  0.00  0.00     0.000 C
ATOM     63  O5  SGN F   4     -17.614  55.923 173.2700  0.00  0.00     0.000 O
ATOM     64   N  SGN F   4     -14.303  57.245 172.3690  0.00  0.00     0.000 N
ATOM     66  HD  SGN F   4     -15.005  57.153 172.8680  0.00  0.00     0.000 HD
ATOM     66   S  SGN F   4     -13.810  58.471 173.3250  0.00  0.00     0.000 S
ATOM     67   O  SGN F   4     -14.958  59.343 173.4840  0.00  0.00     0.000 OA
ATOM     68   O  SGN F   4     -13.369  57.907 174.5990  0.00  0.00     0.000 OA
ATOM     69   O  SGN F   4     -12.751  59.084 172.5560  0.00  0.00     0.000 OA
ATOM     70   O  SGN F   4     -13.825  54.397 172.7360  0.00  0.00     0.000 O
ATOM     72  HD  SGN F   4     -14.527  54.305 173.2340  0.00  0.00     0.000 HD
ATOM     72   C  SGN F   4     -18.695  53.896 173.3430  0.00  0.00     0.000 C
ATOM     73   O  SGN F   4     -18.435  53.842 174.7270  0.00  0.00     0.000 O
ATOM     74   S  SGN F   4     -19.514  53.790 175.8460  0.00  0.00     0.000 S
ATOM     75   O  SGN F   4     -20.635  53.057 175.3570  0.00  0.00     0.000 OA
ATOM     76   O  SGN F   4     -18.903  53.141 177.0050  0.00  0.00     0.000 OA
ATOM     77   O  SGN F   4     -19.860  55.144 176.0390  0.00  0.00     0.000 OA
BRANCH 58 78
ATOM     78  O4  IDS F   5     -16.961  57.038 171.3430  0.00  0.00     0.000 O
BRANCH 78 82
ATOM     79  C1  IDS F   5     -18.162  58.039 168.2280  0.00  0.00     0.000 C
ATOM     80  C2  IDS F   5     -16.739  58.362 168.6630  0.00  0.00     0.000 C
ATOM     81  C3  IDS F   5     -16.701  59.037 170.0360  0.00  0.00     0.000 C
ATOM     82  C4  IDS F   5     -17.568  58.264 171.0520  0.00  0.00     0.000 C
ATOM     83  C5  IDS F   5     -18.958  58.015 170.4630  0.00  0.00     0.000 C
ATOM     84  O5  IDS F   5     -18.858  57.339 169.2270  0.00  0.00     0.000 O
ATOM     85   O  IDS F   5     -18.794  59.243 167.8720  0.00  0.00     0.000 OA
ATOM     86   O  IDS F   5     -16.031  57.159 168.7650  0.00  0.00     0.000 O
ATOM     87   S  IDS F   5     -14.481  56.956 168.8000  0.00  0.00     0.000 S
ATOM     88   O  IDS F   5     -13.910  58.123 169.4180  0.00  0.00     0.000 OA
ATOM     89   O  IDS F   5     -14.250  55.760 169.5770  0.00  0.00     0.000 OA
ATOM     90   O  IDS F   5     -14.093  56.837 167.4190  0.00  0.00     0.000 OA
ATOM     91   O  IDS F   5     -17.214  60.347 169.8980  0.00  0.00     0.000 O
ATOM     93  HD  IDS F   5     -18.011  60.247 170.2210  0.00  0.00     0.000 HD
ATOM     93   O  IDS F   5     -20.322  56.192 171.1400  0.00  0.00     0.000 OA
ATOM     94   O  IDS F   5     -20.269  57.803 172.4440  0.00  0.00     0.000 OA
ATOM     95   C  IDS F   5     -19.907  57.292 171.4010  0.00  0.00     0.000 C
ENDBRANCH 78 82
ENDBRANCH 58 78
ENDBRANCH 57 61
ENDBRANCH 41 57
ENDBRANCH 40 44
ENDBRANCH 20 40
ENDBRANCH 19 23
ENDBRANCH 1 19
TORSDOF 8
ENDMDL
MODEL 59
REMARK VINA RESULT:      -5.6      4.666      8.924
FFDIST PL LJ 2322 74 36 -1
ROOT
ATOM      1  C1  IDS F   1     -20.532  43.372 172.7270  0.00  0.00     0.000 C
ATOM      2  C2  IDS F   1     -21.638  43.757 173.7240  0.00  0.00     0.000 C
ATOM      3  C3  IDS F   1     -23.020  43.954 173.0550  0.00  0.00     0.000 C
ATOM      4  C4  IDS F   1     -23.314  42.952 171.9150  0.00  0.00     0.000 C
ATOM      5  C5  IDS F   1     -22.045  42.689 171.0960  0.00  0.00     0.000 C
ATOM      6  O5  IDS F   1     -21.001  42.316 171.9330  0.00  0.00     0.000 O
ATOM      7   S  IDS F   1     -22.484  42.843 176.1220  0.00  0.00     0.000 S
ATOM      8   O  IDS F   1     -23.767  43.424 175.8650  0.00  0.00     0.000 OA
ATOM      9   O  IDS F   1     -22.612  41.515 176.6470  0.00  0.00     0.000 OA
ATOM     10   O  IDS F   1     -21.623  43.689 176.9160  0.00  0.00     0.000 OA
ATOM     11   O  IDS F   1     -21.788  42.743 174.6970  0.00  0.00     0.000 O
ATOM     12   O  IDS F   1     -23.088  45.275 172.5230  0.00  0.00     0.000 O
ATOM     14  HD  IDS F   1     -23.509  45.542 171.8150  0.00  0.00     0.000 HD
ATOM     14   O  IDS F   1     -23.750  41.754 172.5100  0.00  0.00     0.000 O
ATOM     16  HD  IDS F   1     -24.171  42.021 171.8020  0.00  0.00     0.000 HD
ATOM     16   O  IDS F   1     -21.267  40.880 169.7580  0.00  0.00     0.000 OA
ATOM     17   O  IDS F   1     -23.136  41.656 169.2300  0.00  0.00     0.000 OA
ATOM     18   C  IDS F   1     -22.164  41.685 169.9670  0.00  0.00     0.000 C
ENDROOT
BRANCH 1 19
ATOM     19  O4  SGN F   2     -19.426  42.922 173.4320  0.00  0.00     0.000 O
BRANCH 19 23
ATOM     20  C1  SGN F   2     -16.272  45.614 172.9890  0.00  0.00     0.000 C
ATOM     21  C2  SGN F   2     -16.365  44.536 171.9210  0.00  0.00     0.000 C
ATOM     22  C3  SGN F   2     -17.791  43.971 171.8350  0.00  0.00     0.000 C
ATOM     23  C4  SGN F   2     -18.123  43.438 173.2650  0.00  0.00     0.000 C
ATOM     24  C5  SGN F   2     -18.013  44.606 174.1880  0.00  0.00     0.000 C
ATOM     25  O5  SGN F   2     -16.707  45.085 174.2110  0.00  0.00     0.000 O
ATOM     26   N  SGN F   2     -15.811  45.067 170.6530  0.00  0.00     0.000 N
ATOM     28  HD  SGN F   2     -16.054  45.057 169.8220  0.00  0.00     0.000 HD
ATOM     28   S  SGN F   2     -14.147  45.029 170.4570  0.00  0.00     0.000 S
ATOM     29   O  SGN F   2     -13.556  45.599 171.6470  0.00  0.00     0.000 OA
ATOM     30   O  SGN F   2     -13.829  43.627 170.3000  0.00  0.00     0.000 OA
ATOM     31   O  SGN F   2     -13.856  45.760 169.2780  0.00  0.00     0.000 OA
ATOM     32   O  SGN F   2     -17.795  42.909 170.8890  0.00  0.00     0.000 O
ATOM     34  HD  SGN F   2     -18.038  42.898 170.0580  0.00  0.00     0.000 HD
ATOM     34   C  SGN F   2     -18.360  44.255 175.5960  0.00  0.00     0.000 C
ATOM     35   O  SGN F   2     -17.531  43.192 175.9220  0.00  0.00     0.000 O
ATOM     36   S  SGN F   2     -17.340  42.562 177.2970  0.00  0.00     0.000 S
ATOM     37   O  SGN F   2     -17.620  41.162 177.1030  0.00  0.00     0.000 OA
ATOM     38   O  SGN F   2     -15.967  42.859 177.6400  0.00  0.00     0.000 OA
ATOM     39   O  SGN F   2     -18.288  43.207 178.1970  0.00  0.00     0.000 OA
BRANCH 20 40
ATOM     40  O4  IDS F   3     -17.029  46.744 172.6500  0.00  0.00     0.000 O
BRANCH 40 44
ATOM     41  C1  IDS F   3     -18.299  49.992 172.8230  0.00  0.00     0.000 C
ATOM     42  C2  IDS F   3     -18.173  49.302 171.4880  0.00  0.00     0.000 C
ATOM     43  C3  IDS F   3     -16.745  48.674 171.2610  0.00  0.00     0.000 C
ATOM     44  C4  IDS F   3     -16.257  47.927 172.4870  0.00  0.00     0.000 C
ATOM     45  C5  IDS F   3     -16.413  48.824 173.7140  0.00  0.00     0.000 C
ATOM     46  O5  IDS F   3     -17.767  49.181 173.8820  0.00  0.00     0.000 O
ATOM     47   O  IDS F   3     -19.695  47.594 169.1980  0.00  0.00     0.000 OA
ATOM     48   O  IDS F   3     -21.335  47.366 170.8880  0.00  0.00     0.000 OA
ATOM     49   O  IDS F   3     -20.653  49.537 170.0970  0.00  0.00     0.000 OA
ATOM     50   O  IDS F   3     -19.184  48.292 171.4000  0.00  0.00     0.000 O
ATOM     51   S  IDS F   3     -20.290  48.189 170.3390  0.00  0.00     0.000 S
ATOM     52   O  IDS F   3     -15.804  49.710 171.0020  0.00  0.00     0.000 O
ATOM     54  HD  IDS F   3     -16.653  49.645 170.8480  0.00  0.00     0.000 HD
ATOM     54   C  IDS F   3     -15.842  48.253 175.0170  0.00  0.00     0.000 C
ATOM     55   O  IDS F   3     -16.567  47.705 175.8430  0.00  0.00     0.000 OA
ATOM     56   O  IDS F   3     -14.631  48.318 175.2690  0.00  0.00     0.000 OA
BRANCH 41 57
ATOM     57  O4  SGN F   4     -17.675  51.240 172.7440  0.00  0.00     0.000 O
BRANCH 57 61
ATOM     58  C1  SGN F   4     -18.266  54.433 175.2340  0.00  0.00     0.000 C
ATOM     59  C2  SGN F   4     -16.808  53.995 175.0270  0.00  0.00     0.000 C
ATOM     60  C3  SGN F   4     -16.665  53.097 173.8100  0.00  0.00     0.000 C
ATOM     61  C4  SGN F   4     -17.661  51.947 173.9400  0.00  0.00     0.000 C
ATOM     62  C5  SGN F   4     -19.076  52.498 174.2040  0.00  0.00     0.000 C
ATOM     63  O5  SGN F   4     -19.090  53.306 175.3410  0.00  0.00     0.000 O
ATOM     64   N  SGN F   4     -15.932  55.147 174.9410  0.00  0.00     0.000 N
ATOM     66  HD  SGN F   4     -16.570  54.766 175.3850  0.00  0.00     0.000 HD
ATOM     66   S  SGN F   4     -15.357  55.764 176.3370  0.00  0.00     0.000 S
ATOM     67   O  SGN F   4     -16.497  56.350 177.0170  0.00  0.00     0.000 OA
ATOM     68   O  SGN F   4     -14.761  54.673 177.1070  0.00  0.00     0.000 OA
ATOM     69   O  SGN F   4     -14.406  56.757 175.8930  0.00  0.00     0.000 OA
ATOM     70   O  SGN F   4     -15.357  52.544 173.7740  0.00  0.00     0.000 O
ATOM     72  HD  SGN F   4     -15.996  52.162 174.2180  0.00  0.00     0.000 HD
ATOM     72   C  SGN F   4     -20.115  51.440 174.4750  0.00  0.00     0.000 C
ATOM     73   O  SGN F   4     -19.696  50.721 175.6120  0.00  0.00     0.000 O
ATOM     74   S  SGN F   4     -20.639  50.035 176.6420  0.00  0.00     0.000 S
ATOM     75   O  SGN F   4     -21.793  49.563 175.9520  0.00  0.00     0.000 OA
ATOM     76   O  SGN F   4     -19.885  48.942 177.2540  0.00  0.00     0.000 OA
ATOM     77   O  SGN F   4     -20.987  51.080 177.5220  0.00  0.00     0.000 OA
BRANCH 58 78
ATOM     78  O4  IDS F   5     -18.685  55.282 174.1920  0.00  0.00     0.000 O
BRANCH 78 82
ATOM     79  C1  IDS F   5     -20.168  57.678 172.1400  0.00  0.00     0.000 C
ATOM     80  C2  IDS F   5     -18.696  57.770 172.5200  0.00  0.00     0.000 C
ATOM     81  C3  IDS F   5     -18.489  57.671 174.0330  0.00  0.00     0.000 C
ATOM     82  C4  IDS F   5     -19.273  56.477 174.6180  0.00  0.00     0.000 C
ATOM     83  C5  IDS F   5     -20.726  56.527 174.1390  0.00  0.00     0.000 C
ATOM     84  O5  IDS F   5     -20.782  56.559 172.7280  0.00  0.00     0.000 O
ATOM     85   O  IDS F   5     -20.788  58.886 172.5020  0.00  0.00     0.000 OA
ATOM     86   O  IDS F   5     -18.027  56.690 171.9320  0.00  0.00     0.000 O
ATOM     87   S  IDS F   5     -16.490  56.527 171.6910  0.00  0.00     0.000 S
ATOM     88   O  IDS F   5     -15.815  57.243 172.7410  0.00  0.00     0.000 OA
ATOM     89   O  IDS F   5     -16.223  55.108 171.7400  0.00  0.00     0.000 OA
ATOM     90   O  IDS F   5     -16.254  57.120 170.4010  0.00  0.00     0.000 OA
ATOM     91   O  IDS F   5     -18.965  58.865 174.6210  0.00  0.00     0.000 O
ATOM     93  HD  IDS F   5     -19.727  58.601 174.9370  0.00  0.00     0.000 HD
ATOM     93   O  IDS F   5     -22.078  54.582 173.9650  0.00  0.00     0.000 OA
ATOM     94   O  IDS F   5     -21.828  55.330 175.8820  0.00  0.00     0.000 OA
ATOM     95   C  IDS F   5     -21.598  55.415 174.6900  0.00  0.00     0.000 C
ENDBRANCH 78 82
ENDBRANCH 58 78
ENDBRANCH 57 61
ENDBRANCH 41 57
ENDBRANCH 40 44
ENDBRANCH 20 40
ENDBRANCH 19 23
ENDBRANCH 1 19
TORSDOF 8
ENDMDL
MODEL 60
REMARK VINA RESULT:      -5.6      4.188     12.863
FFDIST PL LJ 2322 74 36 -1
ROOT
ATOM      1  C1  IDS F   1     -22.331  47.308 174.3790  0.00  0.00     0.000 C
ATOM      2  C2  IDS F   1     -22.160  45.820 174.0300  0.00  0.00     0.000 C
ATOM      3  C3  IDS F   1     -22.143  44.901 175.2760  0.00  0.00     0.000 C
ATOM      4  C4  IDS F   1     -23.127  45.332 176.3880  0.00  0.00     0.000 C
ATOM      5  C5  IDS F   1     -23.161  46.860 176.5060  0.00  0.00     0.000 C
ATOM      6  O5  IDS F   1     -23.410  47.433 175.2660  0.00  0.00     0.000 O
ATOM      7   S  IDS F   1     -23.294  44.099 172.2820  0.00  0.00     0.000 S
ATOM      8   O  IDS F   1     -22.901  43.015 173.1300  0.00  0.00     0.000 OA
ATOM      9   O  IDS F   1     -24.648  43.944 171.8370  0.00  0.00     0.000 OA
ATOM     10   O  IDS F   1     -22.364  44.348 171.2050  0.00  0.00     0.000 OA
ATOM     11   O  IDS F   1     -23.227  45.388 173.2100  0.00  0.00     0.000 O
ATOM     12   O  IDS F   1     -20.825  44.890 175.8200  0.00  0.00     0.000 O
ATOM     14  HD  IDS F   1     -20.593  44.814 176.6510  0.00  0.00     0.000 HD
ATOM     14   O  IDS F   1     -24.401  44.856 176.0290  0.00  0.00     0.000 O
ATOM     16  HD  IDS F   1     -24.169  44.781 176.8600  0.00  0.00     0.000 HD
ATOM     16   O  IDS F   1     -24.773  48.439 177.2630  0.00  0.00     0.000 OA
ATOM     17   O  IDS F   1     -24.263  46.942 178.6320  0.00  0.00     0.000 OA
ATOM     18   C  IDS F   1     -24.121  47.439 177.5260  0.00  0.00     0.000 C
ENDROOT
BRANCH 1 19
ATOM     19  O4  SGN F   2     -22.641  48.008 173.2230  0.00  0.00     0.000 O
BRANCH 19 23
ATOM     20  C1  SGN F   2     -19.352  50.172 171.8480  0.00  0.00     0.000 C
ATOM     21  C2  SGN F   2     -20.163  50.843 172.9460  0.00  0.00     0.000 C
ATOM     22  C3  SGN F   2     -20.963  49.807 173.7480  0.00  0.00     0.000 C
ATOM     23  C4  SGN F   2     -21.855  49.060 172.7050  0.00  0.00     0.000 C
ATOM     24  C5  SGN F   2     -20.923  48.440 171.7180  0.00  0.00     0.000 C
ATOM     25  O5  SGN F   2     -20.214  49.424 171.0360  0.00  0.00     0.000 O
ATOM     26   N  SGN F   2     -19.264  51.713 173.7430  0.00  0.00     0.000 N
ATOM     28  HD  SGN F   2     -19.137  51.859 174.5870  0.00  0.00     0.000 HD
ATOM     28   S  SGN F   2     -18.931  53.241 173.1420  0.00  0.00     0.000 S
ATOM     29   O  SGN F   2     -18.534  53.088 171.7610  0.00  0.00     0.000 OA
ATOM     30   O  SGN F   2     -20.172  53.969 173.2820  0.00  0.00     0.000 OA
ATOM     31   O  SGN F   2     -17.913  53.790 173.9620  0.00  0.00     0.000 OA
ATOM     32   O  SGN F   2     -21.769  50.498 174.6950  0.00  0.00     0.000 O
ATOM     34  HD  SGN F   2     -21.642  50.645 175.5390  0.00  0.00     0.000 HD
ATOM     34   C  SGN F   2     -21.639  47.640 170.6820  0.00  0.00     0.000 C
ATOM     35   O  SGN F   2     -22.563  48.511 170.1230  0.00  0.00     0.000 O
ATOM     36   S  SGN F   2     -23.433  48.265 168.8950  0.00  0.00     0.000 S
ATOM     37   O  SGN F   2     -24.782  48.493 169.3480  0.00  0.00     0.000 OA
ATOM     38   O  SGN F   2     -22.955  49.221 167.9210  0.00  0.00     0.000 OA
ATOM     39   O  SGN F   2     -23.203  46.887 168.4780  0.00  0.00     0.000 OA
BRANCH 20 40
ATOM     40  O4  IDS F   3     -18.346  49.351 172.3780  0.00  0.00     0.000 O
BRANCH 40 44
ATOM     41  C1  IDS F   3     -15.328  47.873 173.3250  0.00  0.00     0.000 C
ATOM     42  C2  IDS F   3     -15.506  49.366 173.4450  0.00  0.00     0.000 C
ATOM     43  C3  IDS F   3     -16.061  50.020 172.1220  0.00  0.00     0.000 C
ATOM     44  C4  IDS F   3     -17.208  49.219 171.5360  0.00  0.00     0.000 C
ATOM     45  C5  IDS F   3     -16.796  47.750 171.4430  0.00  0.00     0.000 C
ATOM     46  O5  IDS F   3     -16.477  47.257 172.7250  0.00  0.00     0.000 O
ATOM     47   O  IDS F   3     -16.246  51.829 175.4100  0.00  0.00     0.000 OA
ATOM     48   O  IDS F   3     -17.001  50.081 176.8150  0.00  0.00     0.000 OA
ATOM     49   O  IDS F   3     -14.714  50.176 176.0630  0.00  0.00     0.000 OA
ATOM     50   O  IDS F   3     -16.387  49.633 174.5420  0.00  0.00     0.000 O
ATOM     51   S  IDS F   3     -16.072  50.473 175.7890  0.00  0.00     0.000 S
ATOM     52   O  IDS F   3     -15.032  50.054 171.1390  0.00  0.00     0.000 O
ATOM     54  HD  IDS F   3     -15.010  50.083 172.0040  0.00  0.00     0.000 HD
ATOM     54   C  IDS F   3     -17.808  46.832 170.7490  0.00  0.00     0.000 C
ATOM     55   O  IDS F   3     -18.589  46.140 171.3990  0.00  0.00     0.000 OA
ATOM     56   O  IDS F   3     -17.877  46.769 169.5150  0.00  0.00     0.000 OA
BRANCH 41 57
ATOM     57  O4  SGN F   4     -14.153  47.617 172.6120  0.00  0.00     0.000 O
BRANCH 57 61
ATOM     58  C1  SGN F   4     -11.358  44.643 172.8980  0.00  0.00     0.000 C
ATOM     59  C2  SGN F   4     -12.269  44.601 171.6610  0.00  0.00     0.000 C
ATOM     60  C3  SGN F   4     -12.972  45.930 171.4450  0.00  0.00     0.000 C
ATOM     61  C4  SGN F   4     -13.680  46.318 172.7420  0.00  0.00     0.000 C
ATOM     62  C5  SGN F   4     -12.690  46.268 173.9210  0.00  0.00     0.000 C
ATOM     63  O5  SGN F   4     -12.104  45.007 174.0260  0.00  0.00     0.000 O
ATOM     64   N  SGN F   4     -11.520  44.200 170.4860  0.00  0.00     0.000 N
ATOM     66  HD  SGN F   4     -11.699  44.023 171.3140  0.00  0.00     0.000 HD
ATOM     66   S  SGN F   4     -11.366  42.602 170.1990  0.00  0.00     0.000 S
ATOM     67   O  SGN F   4     -10.504  42.088 171.2470  0.00  0.00     0.000 OA
ATOM     68   O  SGN F   4     -12.697  42.000 170.2400  0.00  0.00     0.000 OA
ATOM     69   O  SGN F   4     -10.741  42.559 168.8960  0.00  0.00     0.000 OA
ATOM     70   O  SGN F   4     -13.957  45.791 170.4310  0.00  0.00     0.000 O
ATOM     72  HD  SGN F   4     -14.136  45.614 171.2600  0.00  0.00     0.000 HD
ATOM     72   C  SGN F   4     -13.317  46.511 175.2700  0.00  0.00     0.000 C
ATOM     73   O  SGN F   4     -14.294  45.515 175.4640  0.00  0.00     0.000 O
ATOM     74   S  SGN F   4     -14.724  44.930 176.8410  0.00  0.00     0.000 S
ATOM     75   O  SGN F   4     -14.633  45.965 177.8180  0.00  0.00     0.000 OA
ATOM     76   O  SGN F   4     -16.093  44.440 176.6920  0.00  0.00     0.000 OA
ATOM     77   O  SGN F   4     -13.761  43.931 177.0930  0.00  0.00     0.000 OA
BRANCH 58 78
ATOM     78  O4  IDS F   5     -10.275  45.518 172.6920  0.00  0.00     0.000 O
BRANCH 78 82
ATOM     79  C1  IDS F   5      -7.290  47.310 172.8610  0.00  0.00     0.000 C
ATOM     80  C2  IDS F   5      -7.678  46.545 171.6030  0.00  0.00     0.000 C
ATOM     81  C3  IDS F   5      -8.045  45.091 171.9080  0.00  0.00     0.000 C
ATOM     82  C4  IDS F   5      -9.034  45.011 173.0900  0.00  0.00     0.000 C
ATOM     83  C5  IDS F   5      -8.503  45.832 174.2670  0.00  0.00     0.000 C
ATOM     84  O5  IDS F   5      -8.257  47.165 173.8690  0.00  0.00     0.000 O
ATOM     85   O  IDS F   5      -6.018  46.868 173.2650  0.00  0.00     0.000 OA
ATOM     86   O  IDS F   5      -8.810  47.158 171.0520  0.00  0.00     0.000 O
ATOM     87   S  IDS F   5      -9.370  47.015 169.5990  0.00  0.00     0.000 S
ATOM     88   O  IDS F   5      -9.034  45.694 169.1400  0.00  0.00     0.000 OA
ATOM     89   O  IDS F   5     -10.798  47.211 169.6980  0.00  0.00     0.000 OA
ATOM     90   O  IDS F   5      -8.694  48.034 168.8410  0.00  0.00     0.000 OA
ATOM     91   O  IDS F   5      -6.860  44.402 172.2540  0.00  0.00     0.000 O
ATOM     93  HD  IDS F   5      -6.937  44.364 173.1160  0.00  0.00     0.000 HD
ATOM     93   O  IDS F   5      -9.934  46.780 175.9090  0.00  0.00     0.000 OA
ATOM     94   O  IDS F   5      -9.567  44.749 176.1050  0.00  0.00     0.000 OA
ATOM     95   C  IDS F   5      -9.385  45.789 175.5000  0.00  0.00     0.000 C
ENDBRANCH 78 82
ENDBRANCH 58 78
ENDBRANCH 57 61
ENDBRANCH 41 57
ENDBRANCH 40 44
ENDBRANCH 20 40
ENDBRANCH 19 23
ENDBRANCH 1 19
TORSDOF 8
ENDMDL
MODEL 61
REMARK VINA RESULT:      -5.6      4.088     11.270
FFDIST PL LJ 2322 74 36 -1
ROOT
ATOM      1  C1  IDS F   1     -16.218  58.099 169.3320  0.00  0.00     0.000 C
ATOM      2  C2  IDS F   1     -17.374  58.646 168.4780  0.00  0.00     0.000 C
ATOM      3  C3  IDS F   1     -16.906  59.632 167.3800  0.00  0.00     0.000 C
ATOM      4  C4  IDS F   1     -15.564  59.242 166.7160  0.00  0.00     0.000 C
ATOM      5  C5  IDS F   1     -14.599  58.673 167.7620  0.00  0.00     0.000 C
ATOM      6  O5  IDS F   1     -15.208  57.646 168.4710  0.00  0.00     0.000 O
ATOM      7   S  IDS F   1     -19.493  57.583 167.1820  0.00  0.00     0.000 S
ATOM      8   O  IDS F   1     -19.516  58.731 166.3260  0.00  0.00     0.000 OA
ATOM      9   O  IDS F   1     -19.642  56.372 166.4280  0.00  0.00     0.000 OA
ATOM     10   O  IDS F   1     -20.410  57.680 168.2930  0.00  0.00     0.000 OA
ATOM     11   O  IDS F   1     -18.041  57.584 167.8260  0.00  0.00     0.000 O
ATOM     12   O  IDS F   1     -16.764  60.928 167.9560  0.00  0.00     0.000 O
ATOM     14  HD  IDS F   1     -16.196  61.545 167.7430  0.00  0.00     0.000 HD
ATOM     14   O  IDS F   1     -15.843  58.263 165.7470  0.00  0.00     0.000 O
ATOM     16  HD  IDS F   1     -15.275  58.880 165.5340  0.00  0.00     0.000 HD
ATOM     16   O  IDS F   1     -12.754  57.170 167.6870  0.00  0.00     0.000 OA
ATOM     17   O  IDS F   1     -12.622  58.827 166.4170  0.00  0.00     0.000 OA
ATOM     18   C  IDS F   1     -13.252  58.200 167.2530  0.00  0.00     0.000 C
ENDROOT
BRANCH 1 19
ATOM     19  O4  SGN F   2     -16.675  57.015 170.0670  0.00  0.00     0.000 O
BRANCH 19 23
ATOM     20  C1  SGN F   2     -16.858  55.563 173.9720  0.00  0.00     0.000 C
ATOM     21  C2  SGN F   2     -17.854  56.662 173.6370  0.00  0.00     0.000 C
ATOM     22  C3  SGN F   2     -18.098  56.737 172.1230  0.00  0.00     0.000 C
ATOM     23  C4  SGN F   2     -16.695  56.974 171.4780  0.00  0.00     0.000 C
ATOM     24  C5  SGN F   2     -15.847  55.811 171.8740  0.00  0.00     0.000 C
ATOM     25  O5  SGN F   2     -15.675  55.784 173.2550  0.00  0.00     0.000 O
ATOM     26   N  SGN F   2     -19.066  56.483 174.4710  0.00  0.00     0.000 N
ATOM     28  HD  SGN F   2     -19.921  56.504 174.3290  0.00  0.00     0.000 HD
ATOM     28   S  SGN F   2     -19.028  57.082 176.0350  0.00  0.00     0.000 S
ATOM     29   O  SGN F   2     -17.809  56.609 176.6510  0.00  0.00     0.000 OA
ATOM     30   O  SGN F   2     -19.044  58.519 175.8770  0.00  0.00     0.000 OA
ATOM     31   O  SGN F   2     -20.202  56.620 176.6800  0.00  0.00     0.000 OA
ATOM     32   O  SGN F   2     -18.961  57.838 171.8620  0.00  0.00     0.000 O
ATOM     34  HD  SGN F   2     -19.816  57.859 171.7210  0.00  0.00     0.000 HD
ATOM     34   C  SGN F   2     -14.479  55.873 171.2800  0.00  0.00     0.000 C
ATOM     35   O  SGN F   2     -13.971  57.106 171.6630  0.00  0.00     0.000 O
ATOM     36   S  SGN F   2     -12.543  57.609 171.4800  0.00  0.00     0.000 S
ATOM     37   O  SGN F   2     -12.680  58.854 170.7680  0.00  0.00     0.000 OA
ATOM     38   O  SGN F   2     -12.035  57.740 172.8280  0.00  0.00     0.000 OA
ATOM     39   O  SGN F   2     -11.828  56.596 170.7140  0.00  0.00     0.000 OA
BRANCH 20 40
ATOM     40  O4  IDS F   3     -17.374  54.292 173.6810  0.00  0.00     0.000 O
BRANCH 40 44
ATOM     41  C1  IDS F   3     -18.439  50.967 173.6360  0.00  0.00     0.000 C
ATOM     42  C2  IDS F   3     -18.985  51.920 174.6710  0.00  0.00     0.000 C
ATOM     43  C3  IDS F   3     -17.851  52.718 175.4210  0.00  0.00     0.000 C
ATOM     44  C4  IDS F   3     -16.805  53.248 174.4590  0.00  0.00     0.000 C
ATOM     45  C5  IDS F   3     -16.342  52.111 173.5480  0.00  0.00     0.000 C
ATOM     46  O5  IDS F   3     -17.438  51.597 172.8240  0.00  0.00     0.000 O
ATOM     47   O  IDS F   3     -21.419  53.895 175.4770  0.00  0.00     0.000 OA
ATOM     48   O  IDS F   3     -21.994  53.617 173.1990  0.00  0.00     0.000 OA
ATOM     49   O  IDS F   3     -21.832  51.726 174.6820  0.00  0.00     0.000 OA
ATOM     50   O  IDS F   3     -19.889  52.823 174.0260  0.00  0.00     0.000 O
ATOM     51   S  IDS F   3     -21.375  53.028 174.3560  0.00  0.00     0.000 S
ATOM     52   O  IDS F   3     -17.180  51.851 176.3310  0.00  0.00     0.000 O
ATOM     54  HD  IDS F   3     -17.992  51.862 176.0300  0.00  0.00     0.000 HD
ATOM     54   C  IDS F   3     -15.189  52.463 172.6020  0.00  0.00     0.000 C
ATOM     55   O  IDS F   3     -15.397  52.761 171.4290  0.00  0.00     0.000 OA
ATOM     56   O  IDS F   3     -14.015  52.468 172.9960  0.00  0.00     0.000 OA
BRANCH 41 57
ATOM     57  O4  SGN F   4     -17.957  49.828 174.2870  0.00  0.00     0.000 O
BRANCH 57 61
ATOM     58  C1  SGN F   4     -17.595  45.833 173.4760  0.00  0.00     0.000 C
ATOM     59  C2  SGN F   4     -16.905  46.790 172.4930  0.00  0.00     0.000 C
ATOM     60  C3  SGN F   4     -16.754  48.181 173.0840  0.00  0.00     0.000 C
ATOM     61  C4  SGN F   4     -18.124  48.650 173.5700  0.00  0.00     0.000 C
ATOM     62  C5  SGN F   4     -18.749  47.590 174.4980  0.00  0.00     0.000 C
ATOM     63  O5  SGN F   4     -18.838  46.356 173.8550  0.00  0.00     0.000 O
ATOM     64   N  SGN F   4     -15.626  46.254 172.0660  0.00  0.00     0.000 N
ATOM     66  HD  SGN F   4     -16.468  46.088 172.1830  0.00  0.00     0.000 HD
ATOM     66   S  SGN F   4     -15.623  45.235 170.7930  0.00  0.00     0.000 S
ATOM     67   O  SGN F   4     -16.278  44.023 171.2470  0.00  0.00     0.000 OA
ATOM     68   O  SGN F   4     -16.349  45.872 169.6960  0.00  0.00     0.000 OA
ATOM     69   O  SGN F   4     -14.215  45.039 170.5300  0.00  0.00     0.000 OA
ATOM     70   O  SGN F   4     -16.311  49.083 172.0810  0.00  0.00     0.000 O
ATOM     72  HD  SGN F   4     -17.153  48.917 172.1970  0.00  0.00     0.000 HD
ATOM     72   C  SGN F   4     -20.158  47.898 174.9330  0.00  0.00     0.000 C
ATOM     73   O  SGN F   4     -20.946  47.991 173.7680  0.00  0.00     0.000 O
ATOM     74   S  SGN F   4     -22.459  47.640 173.6730  0.00  0.00     0.000 S
ATOM     75   O  SGN F   4     -23.077  47.968 174.9150  0.00  0.00     0.000 OA
ATOM     76   O  SGN F   4     -23.012  48.418 172.5660  0.00  0.00     0.000 OA
ATOM     77   O  SGN F   4     -22.465  46.243 173.4770  0.00  0.00     0.000 OA
BRANCH 58 78
ATOM     78  O4  IDS F   5     -16.776  45.589 174.5950  0.00  0.00     0.000 O
BRANCH 78 82
ATOM     79  C1  IDS F   5     -15.098  44.340 177.3830  0.00  0.00     0.000 C
ATOM     80  C2  IDS F   5     -14.395  44.480 176.0390  0.00  0.00     0.000 C
ATOM     81  C3  IDS F   5     -15.186  43.816 174.9100  0.00  0.00     0.000 C
ATOM     82  C4  IDS F   5     -16.669  44.242 174.9540  0.00  0.00     0.000 C
ATOM     83  C5  IDS F   5     -17.222  44.046 176.3670  0.00  0.00     0.000 C
ATOM     84  O5  IDS F   5     -16.439  44.752 177.3070  0.00  0.00     0.000 O
ATOM     85   O  IDS F   5     -14.966  43.007 177.8090  0.00  0.00     0.000 OA
ATOM     86   O  IDS F   5     -14.296  45.844 175.7390  0.00  0.00     0.000 O
ATOM     87   S  IDS F   5     -13.352  46.533 174.7000  0.00  0.00     0.000 S
ATOM     88   O  IDS F   5     -13.134  45.594 173.6320  0.00  0.00     0.000 OA
ATOM     89   O  IDS F   5     -14.046  47.718 174.2510  0.00  0.00     0.000 OA
ATOM     90   O  IDS F   5     -12.141  46.808 175.4270  0.00  0.00     0.000 OA
ATOM     91   O  IDS F   5     -15.106  42.415 175.0800  0.00  0.00     0.000 O
ATOM     93  HD  IDS F   5     -15.885  42.245 175.4180  0.00  0.00     0.000 HD
ATOM     93   O  IDS F   5     -19.045  45.316 177.2080  0.00  0.00     0.000 OA
ATOM     94   O  IDS F   5     -19.548  43.772 175.9190  0.00  0.00     0.000 OA
ATOM     95   C  IDS F   5     -18.690  44.400 176.5110  0.00  0.00     0.000 C
ENDBRANCH 78 82
ENDBRANCH 58 78
ENDBRANCH 57 61
ENDBRANCH 41 57
ENDBRANCH 40 44
ENDBRANCH 20 40
ENDBRANCH 19 23
ENDBRANCH 1 19
TORSDOF 8
ENDMDL
MODEL 62
REMARK VINA RESULT:      -5.6      3.524      6.851
FFDIST PL LJ 2322 74 36 -1
ROOT
ATOM      1  C1  IDS F   1      -9.563  48.257 171.5220  0.00  0.00     0.000 C
ATOM      2  C2  IDS F   1      -9.462  47.345 170.2890  0.00  0.00     0.000 C
ATOM      3  C3  IDS F   1      -8.998  48.092 169.0150  0.00  0.00     0.000 C
ATOM      4  C4  IDS F   1      -7.919  49.169 169.2770  0.00  0.00     0.000 C
ATOM      5  C5  IDS F   1      -8.209  49.904 170.5900  0.00  0.00     0.000 C
ATOM      6  O5  IDS F   1      -8.374  48.993 171.6260  0.00  0.00     0.000 O
ATOM      7   S  IDS F   1      -8.376  44.930 169.7520  0.00  0.00     0.000 S
ATOM      8   O  IDS F   1      -8.317  45.290 168.3670  0.00  0.00     0.000 OA
ATOM      9   O  IDS F   1      -7.153  44.316 170.1800  0.00  0.00     0.000 OA
ATOM     10   O  IDS F   1      -9.550  44.160 170.0920  0.00  0.00     0.000 OA
ATOM     11   O  IDS F   1      -8.531  46.308 170.5260  0.00  0.00     0.000 O
ATOM     12   O  IDS F   1     -10.126  48.722 168.4150  0.00  0.00     0.000 O
ATOM     14  HD  IDS F   1     -10.148  49.467 167.9740  0.00  0.00     0.000 HD
ATOM     14   O  IDS F   1      -6.680  48.509 169.3680  0.00  0.00     0.000 O
ATOM     16  HD  IDS F   1      -6.701  49.254 168.9270  0.00  0.00     0.000 HD
ATOM     16   O  IDS F   1      -6.873  51.067 172.1820  0.00  0.00     0.000 OA
ATOM     17   O  IDS F   1      -6.718  51.740 170.2070  0.00  0.00     0.000 OA
ATOM     18   C  IDS F   1      -7.207  50.962 171.0100  0.00  0.00     0.000 C
ENDROOT
BRANCH 1 19
ATOM     19  O4  SGN F   2      -9.680  47.468 172.6570  0.00  0.00     0.000 O
BRANCH 19 23
ATOM     20  C1  SGN F   2     -13.150  48.040 174.8990  0.00  0.00     0.000 C
ATOM     21  C2  SGN F   2     -12.180  49.211 174.8870  0.00  0.00     0.000 C
ATOM     22  C3  SGN F   2     -11.262  49.149 173.6580  0.00  0.00     0.000 C
ATOM     23  C4  SGN F   2     -10.540  47.766 173.7360  0.00  0.00     0.000 C
ATOM     24  C5  SGN F   2     -11.613  46.728 173.7150  0.00  0.00     0.000 C
ATOM     25  O5  SGN F   2     -12.423  46.844 174.8410  0.00  0.00     0.000 O
ATOM     26   N  SGN F   2     -12.946  50.470 175.0500  0.00  0.00     0.000 N
ATOM     28  HD  SGN F   2     -12.940  51.248 174.6700  0.00  0.00     0.000 HD
ATOM     28   S  SGN F   2     -13.374  50.922 176.6060  0.00  0.00     0.000 S
ATOM     29   O  SGN F   2     -13.980  49.773 177.2410  0.00  0.00     0.000 OA
ATOM     30   O  SGN F   2     -12.128  51.304 177.2320  0.00  0.00     0.000 OA
ATOM     31   O  SGN F   2     -14.252  52.028 176.4850  0.00  0.00     0.000 OA
ATOM     32   O  SGN F   2     -10.321  50.212 173.7490  0.00  0.00     0.000 O
ATOM     34  HD  SGN F   2     -10.315  50.990 173.3700  0.00  0.00     0.000 HD
ATOM     34   C  SGN F   2     -11.066  45.340 173.7290  0.00  0.00     0.000 C
ATOM     35   O  SGN F   2     -10.242  45.285 174.8440  0.00  0.00     0.000 O
ATOM     36   S  SGN F   2      -9.574  44.048 175.4330  0.00  0.00     0.000 S
ATOM     37   O  SGN F   2      -8.171  44.376 175.4840  0.00  0.00     0.000 OA
ATOM     38   O  SGN F   2     -10.200  43.884 176.7270  0.00  0.00     0.000 OA
ATOM     39   O  SGN F   2      -9.861  42.937 174.5340  0.00  0.00     0.000 OA
BRANCH 20 40
ATOM     40  O4  IDS F   3     -14.059  48.111 173.8340  0.00  0.00     0.000 O
BRANCH 40 44
ATOM     41  C1  IDS F   3     -16.850  48.569 171.7860  0.00  0.00     0.000 C
ATOM     42  C2  IDS F   3     -15.529  49.191 171.4100  0.00  0.00     0.000 C
ATOM     43  C3  IDS F   3     -14.873  49.993 172.5980  0.00  0.00     0.000 C
ATOM     44  C4  IDS F   3     -14.942  49.223 173.9030  0.00  0.00     0.000 C
ATOM     45  C5  IDS F   3     -16.375  48.738 174.1230  0.00  0.00     0.000 C
ATOM     46  O5  IDS F   3     -16.771  47.906 173.0570  0.00  0.00     0.000 O
ATOM     47   O  IDS F   3     -12.837  48.900 169.6350  0.00  0.00     0.000 OA
ATOM     48   O  IDS F   3     -13.607  46.677 169.3880  0.00  0.00     0.000 OA
ATOM     49   O  IDS F   3     -14.955  48.547 168.6900  0.00  0.00     0.000 OA
ATOM     50   O  IDS F   3     -14.649  48.154 170.9610  0.00  0.00     0.000 O
ATOM     51   S  IDS F   3     -13.974  48.053 169.5850  0.00  0.00     0.000 S
ATOM     52   O  IDS F   3     -15.580  51.213 172.7970  0.00  0.00     0.000 O
ATOM     54  HD  IDS F   3     -15.445  50.728 172.0930  0.00  0.00     0.000 HD
ATOM     54   C  IDS F   3     -16.631  48.051 175.4680  0.00  0.00     0.000 C
ATOM     55   O  IDS F   3     -16.645  46.826 175.5630  0.00  0.00     0.000 OA
ATOM     56   O  IDS F   3     -16.820  48.709 176.5000  0.00  0.00     0.000 OA
BRANCH 41 57
ATOM     57  O4  SGN F   4     -17.835  49.561 171.7650  0.00  0.00     0.000 O
BRANCH 57 61
ATOM     58  C1  SGN F   4     -21.868  49.144 171.2150  0.00  0.00     0.000 C
ATOM     59  C2  SGN F   4     -21.427  49.814 172.5260  0.00  0.00     0.000 C
ATOM     60  C3  SGN F   4     -19.983  50.278 172.4540  0.00  0.00     0.000 C
ATOM     61  C4  SGN F   4     -19.118  49.095 172.0240  0.00  0.00     0.000 C
ATOM     62  C5  SGN F   4     -19.683  48.465 170.7370  0.00  0.00     0.000 C
ATOM     63  O5  SGN F   4     -21.012  48.078 170.9150  0.00  0.00     0.000 O
ATOM     64   N  SGN F   4     -22.318  50.906 172.8690  0.00  0.00     0.000 N
ATOM     66  HD  SGN F   4     -22.264  50.078 172.6230  0.00  0.00     0.000 HD
ATOM     66   S  SGN F   4     -23.662  50.544 173.7190  0.00  0.00     0.000 S
ATOM     67   O  SGN F   4     -24.512  49.784 172.8220  0.00  0.00     0.000 OA
ATOM     68   O  SGN F   4     -23.266  49.765 174.8900  0.00  0.00     0.000 OA
ATOM     69   O  SGN F   4     -24.212  51.843 174.0370  0.00  0.00     0.000 OA
ATOM     70   O  SGN F   4     -19.549  50.695 173.7410  0.00  0.00     0.000 O
ATOM     72  HD  SGN F   4     -19.495  49.867 173.4940  0.00  0.00     0.000 HD
ATOM     72   C  SGN F   4     -18.976  47.210 170.2960  0.00  0.00     0.000 C
ATOM     73   O  SGN F   4     -19.092  46.273 171.3420  0.00  0.00     0.000 O
ATOM     74   S  SGN F   4     -19.140  44.727 171.1660  0.00  0.00     0.000 S
ATOM     75   O  SGN F   4     -18.321  44.375 170.0530  0.00  0.00     0.000 OA
ATOM     76   O  SGN F   4     -18.650  44.137 172.4110  0.00  0.00     0.000 OA
ATOM     77   O  SGN F   4     -20.496  44.466 170.8790  0.00  0.00     0.000 OA
BRANCH 58 78
ATOM     78  O4  IDS F   5     -21.912  50.081 170.1660  0.00  0.00     0.000 O
BRANCH 78 82
ATOM     79  C1  IDS F   5     -22.588  52.018 167.3480  0.00  0.00     0.000 C
ATOM     80  C2  IDS F   5     -22.956  52.505 168.7430  0.00  0.00     0.000 C
ATOM     81  C3  IDS F   5     -23.767  51.462 169.5160  0.00  0.00     0.000 C
ATOM     82  C4  IDS F   5     -23.101  50.072 169.4290  0.00  0.00     0.000 C
ATOM     83  C5  IDS F   5     -22.792  49.737 167.9680  0.00  0.00     0.000 C
ATOM     84  O5  IDS F   5     -21.993  50.747 167.3870  0.00  0.00     0.000 O
ATOM     85   O  IDS F   5     -23.749  52.048 166.5560  0.00  0.00     0.000 OA
ATOM     86   O  IDS F   5     -21.770  52.726 169.4540  0.00  0.00     0.000 O
ATOM     87   S  IDS F   5     -21.573  53.568 170.7560  0.00  0.00     0.000 S
ATOM     88   O  IDS F   5     -22.798  53.488 171.5070  0.00  0.00     0.000 OA
ATOM     89   O  IDS F   5     -20.462  52.967 171.4590  0.00  0.00     0.000 OA
ATOM     90   O  IDS F   5     -21.313  54.907 170.2960  0.00  0.00     0.000 OA
ATOM     91   O  IDS F   5     -25.055  51.390 168.9380  0.00  0.00     0.000 O
ATOM     93  HD  IDS F   5     -24.988  50.662 168.4750  0.00  0.00     0.000 HD
ATOM     93   O  IDS F   5     -21.046  48.252 167.3440  0.00  0.00     0.000 OA
ATOM     94   O  IDS F   5     -22.782  47.354 168.0340  0.00  0.00     0.000 OA
ATOM     95   C  IDS F   5     -22.168  48.369 167.7670  0.00  0.00     0.000 C
ENDBRANCH 78 82
ENDBRANCH 58 78
ENDBRANCH 57 61
ENDBRANCH 41 57
ENDBRANCH 40 44
ENDBRANCH 20 40
ENDBRANCH 19 23
ENDBRANCH 1 19
TORSDOF 8
ENDMDL
MODEL 63
REMARK VINA RESULT:      -5.5      3.701      5.652
FFDIST PL LJ 2322 74 36 -1
ROOT
ATOM      1  C1  IDS F   1      -8.587  47.583 172.4500  0.00  0.00     0.000 C
ATOM      2  C2  IDS F   1      -8.646  48.344 171.1150  0.00  0.00     0.000 C
ATOM      3  C3  IDS F   1      -8.024  49.760 171.1930  0.00  0.00     0.000 C
ATOM      4  C4  IDS F   1      -6.761  49.842 172.0810  0.00  0.00     0.000 C
ATOM      5  C5  IDS F   1      -6.922  48.956 173.3210  0.00  0.00     0.000 C
ATOM      6  O5  IDS F   1      -7.279  47.666 172.9490  0.00  0.00     0.000 O
ATOM      7   S  IDS F   1      -8.044  47.786 168.5410  0.00  0.00     0.000 S
ATOM      8   O  IDS F   1      -7.893  49.188 168.2960  0.00  0.00     0.000 OA
ATOM      9   O  IDS F   1      -6.972  47.038 167.9520  0.00  0.00     0.000 OA
ATOM     10   O  IDS F   1      -9.351  47.282 168.1890  0.00  0.00     0.000 OA
ATOM     11   O  IDS F   1      -7.940  47.633 170.1190  0.00  0.00     0.000 O
ATOM     12   O  IDS F   1      -8.999  50.661 171.7120  0.00  0.00     0.000 O
ATOM     14  HD  IDS F   1      -8.867  51.360 172.2070  0.00  0.00     0.000 HD
ATOM     14   O  IDS F   1      -5.676  49.385 171.3110  0.00  0.00     0.000 O
ATOM     16  HD  IDS F   1      -5.544  50.083 171.8070  0.00  0.00     0.000 HD
ATOM     16   O  IDS F   1      -5.412  47.832 174.7780  0.00  0.00     0.000 OA
ATOM     17   O  IDS F   1      -5.096  49.889 174.5600  0.00  0.00     0.000 OA
ATOM     18   C  IDS F   1      -5.741  48.895 174.2680  0.00  0.00     0.000 C
ENDROOT
BRANCH 1 19
ATOM     19  O4  SGN F   2      -8.875  46.246 172.2190  0.00  0.00     0.000 O
BRANCH 19 23
ATOM     20  C1  SGN F   2     -12.414  44.626 173.7160  0.00  0.00     0.000 C
ATOM     21  C2  SGN F   2     -11.507  45.278 174.7470  0.00  0.00     0.000 C
ATOM     22  C3  SGN F   2     -10.563  46.290 174.0850  0.00  0.00     0.000 C
ATOM     23  C4  SGN F   2      -9.771  45.488 173.0030  0.00  0.00     0.000 C
ATOM     24  C5  SGN F   2     -10.787  44.934 172.0600  0.00  0.00     0.000 C
ATOM     25  O5  SGN F   2     -11.624  44.039 172.7190  0.00  0.00     0.000 O
ATOM     26   N  SGN F   2     -12.342  45.810 175.8510  0.00  0.00     0.000 N
ATOM     28  HD  SGN F   2     -12.369  46.550 176.3020  0.00  0.00     0.000 HD
ATOM     28   S  SGN F   2     -12.824  44.739 177.0460  0.00  0.00     0.000 S
ATOM     29   O  SGN F   2     -13.382  43.578 176.3880  0.00  0.00     0.000 OA
ATOM     30   O  SGN F   2     -11.613  44.431 177.7740  0.00  0.00     0.000 OA
ATOM     31   O  SGN F   2     -13.757  45.426 177.8610  0.00  0.00     0.000 OA
ATOM     32   O  SGN F   2      -9.680  46.797 175.0790  0.00  0.00     0.000 O
ATOM     34  HD  SGN F   2      -9.708  47.536 175.5290  0.00  0.00     0.000 HD
ATOM     34   C  SGN F   2     -10.167  44.181 170.9310  0.00  0.00     0.000 C
ATOM     35   O  SGN F   2      -9.365  43.221 171.5310  0.00  0.00     0.000 O
ATOM     36   S  SGN F   2      -8.644  42.066 170.8440  0.00  0.00     0.000 S
ATOM     37   O  SGN F   2      -7.262  42.216 171.2250  0.00  0.00     0.000 OA
ATOM     38   O  SGN F   2      -9.286  40.881 171.3690  0.00  0.00     0.000 OA
ATOM     39   O  SGN F   2      -8.854  42.222 169.4110  0.00  0.00     0.000 OA
BRANCH 20 40
ATOM     40  O4  IDS F   3     -13.304  45.551 173.1510  0.00  0.00     0.000 O
BRANCH 40 44
ATOM     41  C1  IDS F   3     -16.047  47.640 172.5990  0.00  0.00     0.000 C
ATOM     42  C2  IDS F   3     -15.576  47.370 174.0060  0.00  0.00     0.000 C
ATOM     43  C3  IDS F   3     -15.386  45.832 174.2990  0.00  0.00     0.000 C
ATOM     44  C4  IDS F   3     -14.661  45.129 173.1680  0.00  0.00     0.000 C
ATOM     45  C5  IDS F   3     -15.335  45.486 171.8430  0.00  0.00     0.000 C
ATOM     46  O5  IDS F   3     -15.292  46.881 171.6420  0.00  0.00     0.000 O
ATOM     47   O  IDS F   3     -13.800  48.440 176.4910  0.00  0.00     0.000 OA
ATOM     48   O  IDS F   3     -12.944  49.912 174.8480  0.00  0.00     0.000 OA
ATOM     49   O  IDS F   3     -15.295  49.859 175.3710  0.00  0.00     0.000 OA
ATOM     50   O  IDS F   3     -14.349  48.075 174.2190  0.00  0.00     0.000 O
ATOM     51   S  IDS F   3     -14.076  49.142 175.2900  0.00  0.00     0.000 S
ATOM     52   O  IDS F   3     -16.661  45.210 174.4280  0.00  0.00     0.000 O
ATOM     54  HD  IDS F   3     -16.388  46.015 174.5920  0.00  0.00     0.000 HD
ATOM     54   C  IDS F   3     -14.792  44.747 170.6160  0.00  0.00     0.000 C
ATOM     55   O  IDS F   3     -13.976  45.277 169.8650  0.00  0.00     0.000 OA
ATOM     56   O  IDS F   3     -15.150  43.592 170.3510  0.00  0.00     0.000 OA
BRANCH 41 57
ATOM     57  O4  SGN F   4     -17.417  47.375 172.5260  0.00  0.00     0.000 O
BRANCH 57 61
ATOM     58  C1  SGN F   4     -20.636  49.524 171.1950  0.00  0.00     0.000 C
ATOM     59  C2  SGN F   4     -20.118  48.424 170.2550  0.00  0.00     0.000 C
ATOM     60  C3  SGN F   4     -19.215  47.447 170.9870  0.00  0.00     0.000 C
ATOM     61  C4  SGN F   4     -18.121  48.241 171.6980  0.00  0.00     0.000 C
ATOM     62  C5  SGN F   4     -18.749  49.350 172.5630  0.00  0.00     0.000 C
ATOM     63  O5  SGN F   4     -19.556  50.186 171.7910  0.00  0.00     0.000 O
ATOM     64   N  SGN F   4     -21.221  47.742 169.6050  0.00  0.00     0.000 N
ATOM     66  HD  SGN F   4     -20.875  48.510 169.8080  0.00  0.00     0.000 HD
ATOM     66   S  SGN F   4     -21.803  48.392 168.2280  0.00  0.00     0.000 S
ATOM     67   O  SGN F   4     -22.451  49.633 168.6110  0.00  0.00     0.000 OA
ATOM     68   O  SGN F   4     -20.681  48.618 167.3190  0.00  0.00     0.000 OA
ATOM     69   O  SGN F   4     -22.744  47.397 167.7640  0.00  0.00     0.000 OA
ATOM     70   O  SGN F   4     -18.591  46.578 170.0520  0.00  0.00     0.000 O
ATOM     72  HD  SGN F   4     -18.244  47.346 170.2550  0.00  0.00     0.000 HD
ATOM     72   C  SGN F   4     -17.750  50.275 173.2100  0.00  0.00     0.000 C
ATOM     73   O  SGN F   4     -17.007  50.880 172.1760  0.00  0.00     0.000 O
ATOM     74   S  SGN F   4     -16.373  52.300 172.2340  0.00  0.00     0.000 S
ATOM     75   O  SGN F   4     -15.966  52.557 173.5760  0.00  0.00     0.000 OA
ATOM     76   O  SGN F   4     -15.240  52.303 171.3110  0.00  0.00     0.000 OA
ATOM     77   O  SGN F   4     -17.435  53.154 171.8720  0.00  0.00     0.000 OA
BRANCH 58 78
ATOM     78  O4  IDS F   5     -21.507  48.985 172.1610  0.00  0.00     0.000 O
BRANCH 78 82
ATOM     79  C1  IDS F   5     -23.935  48.354 174.5810  0.00  0.00     0.000 C
ATOM     80  C2  IDS F   5     -24.042  47.756 173.1850  0.00  0.00     0.000 C
ATOM     81  C3  IDS F   5     -23.903  48.821 172.0950  0.00  0.00     0.000 C
ATOM     82  C4  IDS F   5     -22.678  49.723 172.3610  0.00  0.00     0.000 C
ATOM     83  C5  IDS F   5     -22.717  50.235 173.8020  0.00  0.00     0.000 C
ATOM     84  O5  IDS F   5     -22.789  49.156 174.7100  0.00  0.00     0.000 O
ATOM     85   O  IDS F   5     -25.121  49.060 174.8460  0.00  0.00     0.000 OA
ATOM     86   O  IDS F   5     -22.992  46.845 173.0190  0.00  0.00     0.000 O
ATOM     87   S  IDS F   5     -22.865  45.708 171.9530  0.00  0.00     0.000 S
ATOM     88   O  IDS F   5     -23.561  46.149 170.7730  0.00  0.00     0.000 OA
ATOM     89   O  IDS F   5     -21.449  45.535 171.7170  0.00  0.00     0.000 OA
ATOM     90   O  IDS F   5     -23.499  44.565 172.5540  0.00  0.00     0.000 OA
ATOM     91   O  IDS F   5     -25.070  49.618 172.1070  0.00  0.00     0.000 O
ATOM     93  HD  IDS F   5     -24.784  50.325 172.5170  0.00  0.00     0.000 HD
ATOM     93   O  IDS F   5     -20.753  50.859 174.9850  0.00  0.00     0.000 OA
ATOM     94   O  IDS F   5     -21.450  52.246 173.6110  0.00  0.00     0.000 OA
ATOM     95   C  IDS F   5     -21.573  51.167 174.1580  0.00  0.00     0.000 C
ENDBRANCH 78 82
ENDBRANCH 58 78
ENDBRANCH 57 61
ENDBRANCH 41 57
ENDBRANCH 40 44
ENDBRANCH 20 40
ENDBRANCH 19 23
ENDBRANCH 1 19
TORSDOF 8
ENDMDL
MODEL 64
REMARK VINA RESULT:      -5.5      3.180     12.253
FFDIST PL LJ 2322 74 36 -1
ROOT
ATOM      1  C1  IDS F   1     -17.216  52.101 173.2190  0.00  0.00     0.000 C
ATOM      2  C2  IDS F   1     -16.476  53.418 172.9340  0.00  0.00     0.000 C
ATOM      3  C3  IDS F   1     -17.397  54.661 172.9960  0.00  0.00     0.000 C
ATOM      4  C4  IDS F   1     -18.466  54.594 174.1120  0.00  0.00     0.000 C
ATOM      5  C5  IDS F   1     -19.015  53.168 174.2390  0.00  0.00     0.000 C
ATOM      6  O5  IDS F   1     -17.972  52.263 174.3890  0.00  0.00     0.000 O
ATOM      7   S  IDS F   1     -14.189  54.576 173.7870  0.00  0.00     0.000 S
ATOM      8   O  IDS F   1     -14.727  55.853 173.4260  0.00  0.00     0.000 OA
ATOM      9   O  IDS F   1     -13.565  54.623 175.0780  0.00  0.00     0.000 OA
ATOM     10   O  IDS F   1     -13.342  54.004 172.7650  0.00  0.00     0.000 OA
ATOM     11   O  IDS F   1     -15.449  53.614 173.8850  0.00  0.00     0.000 O
ATOM     12   O  IDS F   1     -18.062  54.802 171.7430  0.00  0.00     0.000 O
ATOM     14  HD  IDS F   1     -18.857  55.112 171.5950  0.00  0.00     0.000 HD
ATOM     14   O  IDS F   1     -17.842  54.970 175.3140  0.00  0.00     0.000 O
ATOM     16  HD  IDS F   1     -18.637  55.280 175.1660  0.00  0.00     0.000 HD
ATOM     16   O  IDS F   1     -20.005  51.913 176.0030  0.00  0.00     0.000 OA
ATOM     17   O  IDS F   1     -20.933  53.734 175.5580  0.00  0.00     0.000 OA
ATOM     18   C  IDS F   1     -20.041  52.933 175.3290  0.00  0.00     0.000 C
ENDROOT
BRANCH 1 19
ATOM     19  O4  SGN F   2     -16.283  51.100 173.4450  0.00  0.00     0.000 O
BRANCH 19 23
ATOM     20  C1  SGN F   2     -15.802  47.377 175.2620  0.00  0.00     0.000 C
ATOM     21  C2  SGN F   2     -17.091  47.558 174.4760  0.00  0.00     0.000 C
ATOM     22  C3  SGN F   2     -16.943  48.672 173.4290  0.00  0.00     0.000 C
ATOM     23  C4  SGN F   2     -16.534  49.952 174.2270  0.00  0.00     0.000 C
ATOM     24  C5  SGN F   2     -15.252  49.627 174.9190  0.00  0.00     0.000 C
ATOM     25  O5  SGN F   2     -15.443  48.602 175.8400  0.00  0.00     0.000 O
ATOM     26   N  SGN F   2     -17.521  46.241 173.9490  0.00  0.00     0.000 N
ATOM     28  HD  SGN F   2     -17.814  45.946 173.1890  0.00  0.00     0.000 HD
ATOM     28   S  SGN F   2     -18.369  45.231 174.9840  0.00  0.00     0.000 S
ATOM     29   O  SGN F   2     -17.630  45.161 176.2240  0.00  0.00     0.000 OA
ATOM     30   O  SGN F   2     -19.657  45.869 175.1450  0.00  0.00     0.000 OA
ATOM     31   O  SGN F   2     -18.490  43.980 174.3290  0.00  0.00     0.000 OA
ATOM     32   O  SGN F   2     -18.201  48.858 172.7920  0.00  0.00     0.000 O
ATOM     34  HD  SGN F   2     -18.494  48.564 172.0320  0.00  0.00     0.000 HD
ATOM     34   C  SGN F   2     -14.707  50.786 175.6840  0.00  0.00     0.000 C
ATOM     35   O  SGN F   2     -15.731  51.174 176.5360  0.00  0.00     0.000 O
ATOM     36   S  SGN F   2     -15.651  52.195 177.6660  0.00  0.00     0.000 S
ATOM     37   O  SGN F   2     -16.695  53.146 177.3790  0.00  0.00     0.000 OA
ATOM     38   O  SGN F   2     -15.861  51.416 178.8670  0.00  0.00     0.000 OA
ATOM     39   O  SGN F   2     -14.319  52.785 177.6140  0.00  0.00     0.000 OA
BRANCH 20 40
ATOM     40  O4  IDS F   3     -14.765  46.898 174.4500  0.00  0.00     0.000 O
BRANCH 40 44
ATOM     41  C1  IDS F   3     -11.926  45.403 173.0710  0.00  0.00     0.000 C
ATOM     42  C2  IDS F   3     -13.299  44.962 172.6310  0.00  0.00     0.000 C
ATOM     43  C3  IDS F   3     -14.252  44.639 173.8440  0.00  0.00     0.000 C
ATOM     44  C4  IDS F   3     -14.167  45.699 174.9260  0.00  0.00     0.000 C
ATOM     45  C5  IDS F   3     -12.698  45.948 175.2670  0.00  0.00     0.000 C
ATOM     46  O5  IDS F   3     -12.003  46.381 174.1190  0.00  0.00     0.000 O
ATOM     47   O  IDS F   3     -15.630  45.271 170.4060  0.00  0.00     0.000 OA
ATOM     48   O  IDS F   3     -14.359  47.167 169.7810  0.00  0.00     0.000 OA
ATOM     49   O  IDS F   3     -13.391  44.961 169.7790  0.00  0.00     0.000 OA
ATOM     50   O  IDS F   3     -13.866  45.989 171.8100  0.00  0.00     0.000 O
ATOM     51   S  IDS F   3     -14.335  45.848 170.3540  0.00  0.00     0.000 S
ATOM     52   O  IDS F   3     -13.864  43.405 174.4400  0.00  0.00     0.000 O
ATOM     54  HD  IDS F   3     -13.804  43.704 173.6290  0.00  0.00     0.000 HD
ATOM     54   C  IDS F   3     -12.455  46.907 176.4380  0.00  0.00     0.000 C
ATOM     55   O  IDS F   3     -12.178  48.088 176.2450  0.00  0.00     0.000 OA
ATOM     56   O  IDS F   3     -12.540  46.521 177.6110  0.00  0.00     0.000 OA
BRANCH 41 57
ATOM     57  O4  SGN F   4     -11.193  44.275 173.4500  0.00  0.00     0.000 O
BRANCH 57 61
ATOM     58  C1  SGN F   4      -7.688  45.810 171.9970  0.00  0.00     0.000 C
ATOM     59  C2  SGN F   4      -8.485  44.912 171.0380  0.00  0.00     0.000 C
ATOM     60  C3  SGN F   4      -9.918  44.732 171.5080  0.00  0.00     0.000 C
ATOM     61  C4  SGN F   4      -9.894  44.249 172.9560  0.00  0.00     0.000 C
ATOM     62  C5  SGN F   4      -9.021  45.187 173.8130  0.00  0.00     0.000 C
ATOM     63  O5  SGN F   4      -7.731  45.278 173.2920  0.00  0.00     0.000 O
ATOM     64   N  SGN F   4      -8.432  45.430 169.6850  0.00  0.00     0.000 N
ATOM     66  HD  SGN F   4      -7.974  45.223 170.3900  0.00  0.00     0.000 HD
ATOM     66   S  SGN F   4      -7.167  44.988 168.7570  0.00  0.00     0.000 S
ATOM     67   O  SGN F   4      -6.002  45.634 169.3320  0.00  0.00     0.000 OA
ATOM     68   O  SGN F   4      -7.060  43.531 168.7950  0.00  0.00     0.000 OA
ATOM     69   O  SGN F   4      -7.509  45.518 167.4560  0.00  0.00     0.000 OA
ATOM     70   O  SGN F   4     -10.558  43.735 170.7230  0.00  0.00     0.000 O
ATOM     72  HD  SGN F   4     -10.100  43.528 171.4280  0.00  0.00     0.000 HD
ATOM     72   C  SGN F   4      -8.827  44.728 175.2350  0.00  0.00     0.000 C
ATOM     73   O  SGN F   4      -8.210  43.463 175.1880  0.00  0.00     0.000 O
ATOM     74   S  SGN F   4      -7.246  42.889 176.2660  0.00  0.00     0.000 S
ATOM     75   O  SGN F   4      -7.656  43.376 177.5420  0.00  0.00     0.000 OA
ATOM     76   O  SGN F   4      -7.329  41.432 176.1870  0.00  0.00     0.000 OA
ATOM     77   O  SGN F   4      -5.992  43.431 175.9140  0.00  0.00     0.000 OA
BRANCH 58 78
ATOM     78  O4  IDS F   5      -8.176  47.130 171.9660  0.00  0.00     0.000 O
BRANCH 78 82
ATOM     79  C1  IDS F   5      -8.691  50.575 172.0910  0.00  0.00     0.000 C
ATOM     80  C2  IDS F   5      -8.681  49.829 170.7640  0.00  0.00     0.000 C
ATOM     81  C3  IDS F   5      -7.429  48.963 170.6050  0.00  0.00     0.000 C
ATOM     82  C4  IDS F   5      -7.186  48.113 171.8690  0.00  0.00     0.000 C
ATOM     83  C5  IDS F   5      -7.233  49.006 173.1110  0.00  0.00     0.000 C
ATOM     84  O5  IDS F   5      -8.457  49.707 173.1700  0.00  0.00     0.000 O
ATOM     85   O  IDS F   5      -7.745  51.612 172.0170  0.00  0.00     0.000 OA
ATOM     86   O  IDS F   5      -9.790  48.975 170.7350  0.00  0.00     0.000 O
ATOM     87   S  IDS F   5     -10.445  48.292 169.4910  0.00  0.00     0.000 S
ATOM     88   O  IDS F   5      -9.400  48.064 168.5280  0.00  0.00     0.000 OA
ATOM     89   O  IDS F   5     -11.024  47.057 169.9690  0.00  0.00     0.000 OA
ATOM     90   O  IDS F   5     -11.415  49.243 169.0150  0.00  0.00     0.000 OA
ATOM     91   O  IDS F   5      -6.323  49.821 170.4080  0.00  0.00     0.000 O
ATOM     93  HD  IDS F   5      -5.959  49.803 171.1940  0.00  0.00     0.000 HD
ATOM     93   O  IDS F   5      -7.817  48.174 175.2580  0.00  0.00     0.000 OA
ATOM     94   O  IDS F   5      -5.885  47.757 174.6300  0.00  0.00     0.000 OA
ATOM     95   C  IDS F   5      -6.965  48.272 174.4110  0.00  0.00     0.000 C
ENDBRANCH 78 82
ENDBRANCH 58 78
ENDBRANCH 57 61
ENDBRANCH 41 57
ENDBRANCH 40 44
ENDBRANCH 20 40
ENDBRANCH 19 23
ENDBRANCH 1 19
TORSDOF 8
ENDMDL
MODEL 65
REMARK VINA RESULT:      -5.5      3.078      6.675
FFDIST PL LJ 2322 74 36 -1
ROOT
ATOM      1  C1  IDS F   1     -11.141  48.044 174.3730  0.00  0.00     0.000 C
ATOM      2  C2  IDS F   1     -10.050  49.125 174.3020  0.00  0.00     0.000 C
ATOM      3  C3  IDS F   1     -10.319  50.324 175.2430  0.00  0.00     0.000 C
ATOM      4  C4  IDS F   1     -10.934  49.928 176.6050  0.00  0.00     0.000 C
ATOM      5  C5  IDS F   1     -11.952  48.796 176.4210  0.00  0.00     0.000 C
ATOM      6  O5  IDS F   1     -11.377  47.742 175.7220  0.00  0.00     0.000 O
ATOM      7   S  IDS F   1      -7.350  49.155 174.3790  0.00  0.00     0.000 S
ATOM      8   O  IDS F   1      -7.400  50.517 174.8180  0.00  0.00     0.000 OA
ATOM      9   O  IDS F   1      -6.407  48.398 175.1510  0.00  0.00     0.000 OA
ATOM     10   O  IDS F   1      -7.159  49.021 172.9540  0.00  0.00     0.000 OA
ATOM     11   O  IDS F   1      -8.801  48.578 174.6720  0.00  0.00     0.000 O
ATOM     12   O  IDS F   1     -11.208  51.228 174.5920  0.00  0.00     0.000 O
ATOM     14  HD  IDS F   1     -11.812  51.733 174.9540  0.00  0.00     0.000 HD
ATOM     14   O  IDS F   1      -9.883  49.489 177.4300  0.00  0.00     0.000 O
ATOM     16  HD  IDS F   1     -10.486  49.995 177.7920  0.00  0.00     0.000 HD
ATOM     16   O  IDS F   1     -12.791  47.063 177.8200  0.00  0.00     0.000 OA
ATOM     17   O  IDS F   1     -12.982  49.005 178.5740  0.00  0.00     0.000 OA
ATOM     18   C  IDS F   1     -12.608  48.264 177.6790  0.00  0.00     0.000 C
ENDROOT
BRANCH 1 19
ATOM     19  O4  SGN F   2     -10.678  46.894 173.7500  0.00  0.00     0.000 O
BRANCH 19 23
ATOM     20  C1  SGN F   2     -13.890  45.517 171.4740  0.00  0.00     0.000 C
ATOM     21  C2  SGN F   2     -13.205  44.469 172.3370  0.00  0.00     0.000 C
ATOM     22  C3  SGN F   2     -12.452  45.127 173.5030  0.00  0.00     0.000 C
ATOM     23  C4  SGN F   2     -11.444  46.126 172.8480  0.00  0.00     0.000 C
ATOM     24  C5  SGN F   2     -12.262  47.095 172.0610  0.00  0.00     0.000 C
ATOM     25  O5  SGN F   2     -12.935  46.442 171.0330  0.00  0.00     0.000 O
ATOM     26   N  SGN F   2     -14.198  43.438 172.7200  0.00  0.00     0.000 N
ATOM     28  HD  SGN F   2     -14.407  43.025 173.4520  0.00  0.00     0.000 HD
ATOM     28   S  SGN F   2     -14.521  42.223 171.6130  0.00  0.00     0.000 S
ATOM     29   O  SGN F   2     -14.783  42.854 170.3390  0.00  0.00     0.000 OA
ATOM     30   O  SGN F   2     -13.320  41.417 171.5910  0.00  0.00     0.000 OA
ATOM     31   O  SGN F   2     -15.625  41.491 172.1160  0.00  0.00     0.000 OA
ATOM     32   O  SGN F   2     -11.758  44.111 174.2170  0.00  0.00     0.000 O
ATOM     34  HD  SGN F   2     -11.966  43.698 174.9490  0.00  0.00     0.000 HD
ATOM     34   C  SGN F   2     -11.431  48.153 171.4170  0.00  0.00     0.000 C
ATOM     35   O  SGN F   2     -10.485  47.467 170.6690  0.00  0.00     0.000 O
ATOM     36   S  SGN F   2      -9.499  48.059 169.6680  0.00  0.00     0.000 S
ATOM     37   O  SGN F   2      -8.205  47.612 170.1180  0.00  0.00     0.000 OA
ATOM     38   O  SGN F   2      -9.912  47.515 168.3930  0.00  0.00     0.000 OA
ATOM     39   O  SGN F   2      -9.647  49.508 169.7270  0.00  0.00     0.000 OA
BRANCH 20 40
ATOM     40  O4  IDS F   3     -14.916  46.171 172.1720  0.00  0.00     0.000 O
BRANCH 40 44
ATOM     41  C1  IDS F   3     -18.094  47.580 172.5000  0.00  0.00     0.000 C
ATOM     42  C2  IDS F   3     -17.776  46.705 171.3130  0.00  0.00     0.000 C
ATOM     43  C3  IDS F   3     -16.439  47.124 170.5890  0.00  0.00     0.000 C
ATOM     44  C4  IDS F   3     -15.324  47.397 171.5810  0.00  0.00     0.000 C
ATOM     45  C5  IDS F   3     -15.836  48.351 172.6600  0.00  0.00     0.000 C
ATOM     46  O5  IDS F   3     -16.937  47.777 173.3270  0.00  0.00     0.000 O
ATOM     47   O  IDS F   3     -17.963  43.732 170.0470  0.00  0.00     0.000 OA
ATOM     48   O  IDS F   3     -18.506  43.150 172.2750  0.00  0.00     0.000 OA
ATOM     49   O  IDS F   3     -19.830  44.743 171.0450  0.00  0.00     0.000 OA
ATOM     50   O  IDS F   3     -17.700  45.346 171.7570  0.00  0.00     0.000 O
ATOM     51   S  IDS F   3     -18.552  44.169 171.2610  0.00  0.00     0.000 S
ATOM     52   O  IDS F   3     -16.650  48.327 169.8570  0.00  0.00     0.000 O
ATOM     54  HD  IDS F   3     -17.180  47.677 170.0740  0.00  0.00     0.000 HD
ATOM     54   C  IDS F   3     -14.782  48.824 173.6660  0.00  0.00     0.000 C
ATOM     55   O  IDS F   3     -14.676  48.296 174.7710  0.00  0.00     0.000 OA
ATOM     56   O  IDS F   3     -13.999  49.742 173.3920  0.00  0.00     0.000 OA
BRANCH 41 57
ATOM     57  O4  SGN F   4     -18.628  48.786 172.0370  0.00  0.00     0.000 O
BRANCH 57 61
ATOM     58  C1  SGN F   4     -21.409  51.466 173.3900  0.00  0.00     0.000 C
ATOM     59  C2  SGN F   4     -19.959  51.709 173.8370  0.00  0.00     0.000 C
ATOM     60  C3  SGN F   4     -18.976  50.930 172.9810  0.00  0.00     0.000 C
ATOM     61  C4  SGN F   4     -19.401  49.462 172.9730  0.00  0.00     0.000 C
ATOM     62  C5  SGN F   4     -20.883  49.341 172.5700  0.00  0.00     0.000 C
ATOM     63  O5  SGN F   4     -21.692  50.095 173.4200  0.00  0.00     0.000 O
ATOM     64   N  SGN F   4     -19.653  53.126 173.8380  0.00  0.00     0.000 N
ATOM     66  HD  SGN F   4     -20.216  52.516 174.0840  0.00  0.00     0.000 HD
ATOM     66   S  SGN F   4     -20.016  53.975 175.1820  0.00  0.00     0.000 S
ATOM     67   O  SGN F   4     -21.465  54.019 175.2490  0.00  0.00     0.000 OA
ATOM     68   O  SGN F   4     -19.436  53.283 176.3310  0.00  0.00     0.000 OA
ATOM     69   O  SGN F   4     -19.434  55.272 174.9220  0.00  0.00     0.000 OA
ATOM     70   O  SGN F   4     -17.677  51.008 173.5500  0.00  0.00     0.000 O
ATOM     72  HD  SGN F   4     -18.240  50.398 173.7960  0.00  0.00     0.000 HD
ATOM     72   C  SGN F   4     -21.438  47.943 172.6540  0.00  0.00     0.000 C
ATOM     73   O  SGN F   4     -21.302  47.517 173.9900  0.00  0.00     0.000 O
ATOM     74   S  SGN F   4     -22.247  46.517 174.7180  0.00  0.00     0.000 S
ATOM     75   O  SGN F   4     -22.714  45.564 173.7660  0.00  0.00     0.000 OA
ATOM     76   O  SGN F   4     -21.468  45.887 175.7830  0.00  0.00     0.000 OA
ATOM     77   O  SGN F   4     -23.311  47.328 175.1630  0.00  0.00     0.000 OA
BRANCH 58 78
ATOM     78  O4  IDS F   5     -21.636  52.011 172.1120  0.00  0.00     0.000 O
BRANCH 78 82
ATOM     79  C1  IDS F   5     -22.874  53.381 169.1560  0.00  0.00     0.000 C
ATOM     80  C2  IDS F   5     -22.199  54.254 170.2050  0.00  0.00     0.000 C
ATOM     81  C3  IDS F   5     -22.803  54.046 171.5960  0.00  0.00     0.000 C
ATOM     82  C4  IDS F   5     -22.916  52.543 171.9260  0.00  0.00     0.000 C
ATOM     83  C5  IDS F   5     -23.609  51.811 170.7760  0.00  0.00     0.000 C
ATOM     84  O5  IDS F   5     -22.925  52.038 169.5610  0.00  0.00     0.000 O
ATOM     85   O  IDS F   5     -24.149  53.916 168.8980  0.00  0.00     0.000 OA
ATOM     86   O  IDS F   5     -20.849  53.888 170.2730  0.00  0.00     0.000 O
ATOM     87   S  IDS F   5     -19.663  54.700 170.8870  0.00  0.00     0.000 S
ATOM     88   O  IDS F   5     -20.198  55.490 171.9650  0.00  0.00     0.000 OA
ATOM     89   O  IDS F   5     -18.705  53.723 171.3510  0.00  0.00     0.000 OA
ATOM     90   O  IDS F   5     -19.181  55.523 169.8090  0.00  0.00     0.000 OA
ATOM     91   O  IDS F   5     -24.096  54.616 171.6040  0.00  0.00     0.000 O
ATOM     93  HD  IDS F   5     -24.589  53.908 171.5330  0.00  0.00     0.000 HD
ATOM     93   O  IDS F   5     -23.251  49.504 170.3330  0.00  0.00     0.000 OA
ATOM     94   O  IDS F   5     -24.526  49.926 171.9130  0.00  0.00     0.000 OA
ATOM     95   C  IDS F   5     -23.806  50.326 171.0170  0.00  0.00     0.000 C
ENDBRANCH 78 82
ENDBRANCH 58 78
ENDBRANCH 57 61
ENDBRANCH 41 57
ENDBRANCH 40 44
ENDBRANCH 20 40
ENDBRANCH 19 23
ENDBRANCH 1 19
TORSDOF 8
ENDMDL
MODEL 66
REMARK VINA RESULT:      -5.5      3.655      6.445
FFDIST PL LJ 2322 74 36 -1
ROOT
ATOM      1  C1  IDS F   1     -10.863  45.493 175.5590  0.00  0.00     0.000 C
ATOM      2  C2  IDS F   1      -9.415  45.669 175.0730  0.00  0.00     0.000 C
ATOM      3  C3  IDS F   1      -8.593  44.359 175.1210  0.00  0.00     0.000 C
ATOM      4  C4  IDS F   1      -9.397  43.098 174.7280  0.00  0.00     0.000 C
ATOM      5  C5  IDS F   1     -10.824  43.183 175.2820  0.00  0.00     0.000 C
ATOM      6  O5  IDS F   1     -11.416  44.382 174.9060  0.00  0.00     0.000 O
ATOM      7   S  IDS F   1      -8.216  46.814 172.9400  0.00  0.00     0.000 S
ATOM      8   O  IDS F   1      -7.086  45.959 173.1450  0.00  0.00     0.000 OA
ATOM      9   O  IDS F   1      -8.580  46.867 171.5540  0.00  0.00     0.000 OA
ATOM     10   O  IDS F   1      -8.060  48.119 173.5390  0.00  0.00     0.000 OA
ATOM     11   O  IDS F   1      -9.403  46.119 173.7330  0.00  0.00     0.000 O
ATOM     12   O  IDS F   1      -8.091  44.179 176.4430  0.00  0.00     0.000 O
ATOM     14  HD  IDS F   1      -7.955  43.435 176.8640  0.00  0.00     0.000 HD
ATOM     14   O  IDS F   1      -9.438  43.046 173.3230  0.00  0.00     0.000 O
ATOM     16  HD  IDS F   1      -9.301  42.301 173.7440  0.00  0.00     0.000 HD
ATOM     16   O  IDS F   1     -12.921  42.254 174.6430  0.00  0.00     0.000 OA
ATOM     17   O  IDS F   1     -11.379  40.875 174.9550  0.00  0.00     0.000 OA
ATOM     18   C  IDS F   1     -11.754  42.036 174.9370  0.00  0.00     0.000 C
ENDROOT
BRANCH 1 19
ATOM     19  O4  SGN F   2     -11.599  46.613 175.1990  0.00  0.00     0.000 O
BRANCH 19 23
ATOM     20  C1  SGN F   2     -15.478  47.905 174.3830  0.00  0.00     0.000 C
ATOM     21  C2  SGN F   2     -15.319  47.076 175.6470  0.00  0.00     0.000 C
ATOM     22  C3  SGN F   2     -13.870  47.121 176.1530  0.00  0.00     0.000 C
ATOM     23  C4  SGN F   2     -12.991  46.599 174.9710  0.00  0.00     0.000 C
ATOM     24  C5  SGN F   2     -13.237  47.521 173.8230  0.00  0.00     0.000 C
ATOM     25  O5  SGN F   2     -14.567  47.452 173.4200  0.00  0.00     0.000 O
ATOM     26   N  SGN F   2     -16.351  47.492 176.6270  0.00  0.00     0.000 N
ATOM     28  HD  SGN F   2     -16.360  47.671 177.4740  0.00  0.00     0.000 HD
ATOM     28   S  SGN F   2     -17.884  46.835 176.4650  0.00  0.00     0.000 S
ATOM     29   O  SGN F   2     -18.281  46.993 175.0840  0.00  0.00     0.000 OA
ATOM     30   O  SGN F   2     -17.730  45.447 176.8390  0.00  0.00     0.000 OA
ATOM     31   O  SGN F   2     -18.724  47.525 177.3750  0.00  0.00     0.000 OA
ATOM     32   O  SGN F   2     -13.762  46.258 177.2780  0.00  0.00     0.000 O
ATOM     34  HD  SGN F   2     -13.771  46.436 178.1260  0.00  0.00     0.000 HD
ATOM     34   C  SGN F   2     -12.415  47.175 172.6270  0.00  0.00     0.000 C
ATOM     35   O  SGN F   2     -12.702  45.845 172.3610  0.00  0.00     0.000 O
ATOM     36   S  SGN F   2     -12.274  45.038 171.1390  0.00  0.00     0.000 S
ATOM     37   O  SGN F   2     -11.594  43.887 171.6770  0.00  0.00     0.000 OA
ATOM     38   O  SGN F   2     -13.513  44.739 170.4550  0.00  0.00     0.000 OA
ATOM     39   O  SGN F   2     -11.397  45.893 170.3490  0.00  0.00     0.000 OA
BRANCH 20 40
ATOM     40  O4  IDS F   3     -15.284  49.271 174.6330  0.00  0.00     0.000 O
BRANCH 40 44
ATOM     41  C1  IDS F   3     -16.196  52.557 173.8790  0.00  0.00     0.000 C
ATOM     42  C2  IDS F   3     -16.951  51.405 173.2650  0.00  0.00     0.000 C
ATOM     43  C3  IDS F   3     -16.000  50.333 172.6090  0.00  0.00     0.000 C
ATOM     44  C4  IDS F   3     -14.821  50.003 173.5050  0.00  0.00     0.000 C
ATOM     45  C5  IDS F   3     -14.161  51.304 173.9630  0.00  0.00     0.000 C
ATOM     46  O5  IDS F   3     -15.091  52.093 174.6700  0.00  0.00     0.000 O
ATOM     47   O  IDS F   3     -19.564  49.503 173.4620  0.00  0.00     0.000 OA
ATOM     48   O  IDS F   3     -19.716  50.456 175.6230  0.00  0.00     0.000 OA
ATOM     49   O  IDS F   3     -19.746  51.835 173.6480  0.00  0.00     0.000 OA
ATOM     50   O  IDS F   3     -17.762  50.800 174.2790  0.00  0.00     0.000 O
ATOM     51   S  IDS F   3     -19.289  50.642 174.2620  0.00  0.00     0.000 S
ATOM     52   O  IDS F   3     -15.467  50.848 171.3930  0.00  0.00     0.000 O
ATOM     54  HD  IDS F   3     -16.213  50.993 171.8090  0.00  0.00     0.000 HD
ATOM     54   C  IDS F   3     -12.873  51.131 174.7750  0.00  0.00     0.000 C
ATOM     55   O  IDS F   3     -12.882  51.192 176.0020  0.00  0.00     0.000 OA
ATOM     56   O  IDS F   3     -11.788  50.914 174.2190  0.00  0.00     0.000 OA
BRANCH 41 57
ATOM     57  O4  SGN F   4     -15.792  53.422 172.8580  0.00  0.00     0.000 O
BRANCH 57 61
ATOM     58  C1  SGN F   4     -15.797  57.466 172.2300  0.00  0.00     0.000 C
ATOM     59  C2  SGN F   4     -14.616  56.906 173.0380  0.00  0.00     0.000 C
ATOM     60  C3  SGN F   4     -14.493  55.401 172.8720  0.00  0.00     0.000 C
ATOM     61  C4  SGN F   4     -15.844  54.768 173.2000  0.00  0.00     0.000 C
ATOM     62  C5  SGN F   4     -16.959  55.444 172.3790  0.00  0.00     0.000 C
ATOM     63  O5  SGN F   4     -16.980  56.820 172.6070  0.00  0.00     0.000 O
ATOM     64   N  SGN F   4     -13.383  57.581 172.6810  0.00  0.00     0.000 N
ATOM     66  HD  SGN F   4     -14.213  57.680 172.9060  0.00  0.00     0.000 HD
ATOM     66   S  SGN F   4     -13.027  58.965 173.4660  0.00  0.00     0.000 S
ATOM     67   O  SGN F   4     -14.001  59.943 173.0180  0.00  0.00     0.000 OA
ATOM     68   O  SGN F   4     -13.124  58.714 174.9030  0.00  0.00     0.000 OA
ATOM     69   O  SGN F   4     -11.688  59.268 173.0120  0.00  0.00     0.000 OA
ATOM     70   O  SGN F   4     -13.536  54.894 173.7900  0.00  0.00     0.000 O
ATOM     72  HD  SGN F   4     -14.366  54.993 174.0150  0.00  0.00     0.000 HD
ATOM     72   C  SGN F   4     -18.351  54.979 172.7210  0.00  0.00     0.000 C
ATOM     73   O  SGN F   4     -18.565  55.261 174.0850  0.00  0.00     0.000 O
ATOM     74   S  SGN F   4     -19.942  55.591 174.7310  0.00  0.00     0.000 S
ATOM     75   O  SGN F   4     -20.951  54.854 174.0440  0.00  0.00     0.000 OA
ATOM     76   O  SGN F   4     -19.857  55.213 176.1410  0.00  0.00     0.000 OA
ATOM     77   O  SGN F   4     -20.098  56.973 174.4960  0.00  0.00     0.000 OA
BRANCH 58 78
ATOM     78  O4  IDS F   5     -15.560  57.341 170.8480  0.00  0.00     0.000 O
BRANCH 78 82
ATOM     79  C1  IDS F   5     -15.428  57.597 167.3740  0.00  0.00     0.000 C
ATOM     80  C2  IDS F   5     -14.258  58.044 168.2400  0.00  0.00     0.000 C
ATOM     81  C3  IDS F   5     -14.700  59.006 169.3450  0.00  0.00     0.000 C
ATOM     82  C4  IDS F   5     -15.934  58.457 170.0920  0.00  0.00     0.000 C
ATOM     83  C5  IDS F   5     -17.011  58.050 169.0840  0.00  0.00     0.000 C
ATOM     84  O5  IDS F   5     -16.493  57.120 168.1550  0.00  0.00     0.000 O
ATOM     85   O  IDS F   5     -15.802  58.677 166.5550  0.00  0.00     0.000 OA
ATOM     86   O  IDS F   5     -13.719  56.910 168.8610  0.00  0.00     0.000 O
ATOM     87   S  IDS F   5     -12.313  56.758 169.5280  0.00  0.00     0.000 S
ATOM     88   O  IDS F   5     -11.946  58.047 170.0520  0.00  0.00     0.000 OA
ATOM     89   O  IDS F   5     -12.468  55.770 170.5710  0.00  0.00     0.000 OA
ATOM     90   O  IDS F   5     -11.440  56.345 168.4610  0.00  0.00     0.000 OA
ATOM     91   O  IDS F   5     -15.040  60.240 168.7440  0.00  0.00     0.000 O
ATOM     93  HD  IDS F   5     -15.904  60.195 168.7510  0.00  0.00     0.000 HD
ATOM     93   O  IDS F   5     -18.641  56.390 169.5610  0.00  0.00     0.000 OA
ATOM     94   O  IDS F   5     -18.983  58.251 170.4080  0.00  0.00     0.000 OA
ATOM     95   C  IDS F   5     -18.287  57.530 169.7180  0.00  0.00     0.000 C
ENDBRANCH 78 82
ENDBRANCH 58 78
ENDBRANCH 57 61
ENDBRANCH 41 57
ENDBRANCH 40 44
ENDBRANCH 20 40
ENDBRANCH 19 23
ENDBRANCH 1 19
TORSDOF 8
ENDMDL
MODEL 67
REMARK VINA RESULT:      -5.5      3.438     11.824
FFDIST PL LJ 2322 74 36 -1
ROOT
ATOM      1  C1  IDS F   1     -17.561  58.047 169.1550  0.00  0.00     0.000 C
ATOM      2  C2  IDS F   1     -18.764  58.014 168.1990  0.00  0.00     0.000 C
ATOM      3  C3  IDS F   1     -18.681  59.078 167.0780  0.00  0.00     0.000 C
ATOM      4  C4  IDS F   1     -17.253  59.296 166.5250  0.00  0.00     0.000 C
ATOM      5  C5  IDS F   1     -16.227  59.231 167.6610  0.00  0.00     0.000 C
ATOM      6  O5  IDS F   1     -16.387  58.058 168.3880  0.00  0.00     0.000 O
ATOM      7   S  IDS F   1     -20.099  56.101 166.8340  0.00  0.00     0.000 S
ATOM      8   O  IDS F   1     -20.547  57.103 165.9140  0.00  0.00     0.000 OA
ATOM      9   O  IDS F   1     -19.647  54.928 166.1440  0.00  0.00     0.000 OA
ATOM     10   O  IDS F   1     -21.057  55.815 167.8770  0.00  0.00     0.000 OA
ATOM     11   O  IDS F   1     -18.849  56.751 167.5690  0.00  0.00     0.000 O
ATOM     12   O  IDS F   1     -19.163  60.319 167.5860  0.00  0.00     0.000 O
ATOM     14  HD  IDS F   1     -18.902  61.117 167.3750  0.00  0.00     0.000 HD
ATOM     14   O  IDS F   1     -16.999  58.270 165.5980  0.00  0.00     0.000 O
ATOM     16  HD  IDS F   1     -16.739  59.068 165.3870  0.00  0.00     0.000 HD
ATOM     16   O  IDS F   1     -13.914  58.682 167.7910  0.00  0.00     0.000 OA
ATOM     17   O  IDS F   1     -14.408  60.199 166.4380  0.00  0.00     0.000 OA
ATOM     18   C  IDS F   1     -14.771  59.380 167.2670  0.00  0.00     0.000 C
ENDROOT
BRANCH 1 19
ATOM     19  O4  SGN F   2     -17.562  56.890 169.9210  0.00  0.00     0.000 O
BRANCH 19 23
ATOM     20  C1  SGN F   2     -17.604  55.548 173.8690  0.00  0.00     0.000 C
ATOM     21  C2  SGN F   2     -18.861  56.272 173.4130  0.00  0.00     0.000 C
ATOM     22  C3  SGN F   2     -18.992  56.231 171.8830  0.00  0.00     0.000 C
ATOM     23  C4  SGN F   2     -17.683  56.879 171.3270  0.00  0.00     0.000 C
ATOM     24  C5  SGN F   2     -16.552  56.049 171.8380  0.00  0.00     0.000 C
ATOM     25  O5  SGN F   2     -16.494  56.110 173.2270  0.00  0.00     0.000 O
ATOM     26   N  SGN F   2     -20.022  55.742 174.1670  0.00  0.00     0.000 N
ATOM     28  HD  SGN F   2     -20.826  55.493 173.9660  0.00  0.00     0.000 HD
ATOM     28   S  SGN F   2     -20.298  56.362 175.7000  0.00  0.00     0.000 S
ATOM     29   O  SGN F   2     -19.047  56.308 176.4220  0.00  0.00     0.000 OA
ATOM     30   O  SGN F   2     -20.746  57.717 175.4730  0.00  0.00     0.000 OA
ATOM     31   O  SGN F   2     -21.320  55.571 176.2830  0.00  0.00     0.000 OA
ATOM     32   O  SGN F   2     -20.130  57.000 171.5110  0.00  0.00     0.000 O
ATOM     34  HD  SGN F   2     -20.934  56.750 171.3090  0.00  0.00     0.000 HD
ATOM     34   C  SGN F   2     -15.228  56.521 171.3390  0.00  0.00     0.000 C
ATOM     35   O  SGN F   2     -15.159  57.860 171.6960  0.00  0.00     0.000 O
ATOM     36   S  SGN F   2     -13.948  58.779 171.5900  0.00  0.00     0.000 S
ATOM     37   O  SGN F   2     -14.405  59.902 170.8110  0.00  0.00     0.000 OA
ATOM     38   O  SGN F   2     -13.616  59.095 172.9620  0.00  0.00     0.000 OA
ATOM     39   O  SGN F   2     -12.894  58.023 170.9250  0.00  0.00     0.000 OA
BRANCH 20 40
ATOM     40  O4  IDS F   3     -17.676  54.173 173.6050  0.00  0.00     0.000 O
BRANCH 40 44
ATOM     41  C1  IDS F   3     -17.687  50.683 173.7180  0.00  0.00     0.000 C
ATOM     42  C2  IDS F   3     -18.490  51.472 174.7220  0.00  0.00     0.000 C
ATOM     43  C3  IDS F   3     -17.647  52.608 175.4180  0.00  0.00     0.000 C
ATOM     44  C4  IDS F   3     -16.814  53.385 174.4150  0.00  0.00     0.000 C
ATOM     45  C5  IDS F   3     -16.034  52.401 173.5440  0.00  0.00     0.000 C
ATOM     46  O5  IDS F   3     -16.927  51.548 172.8620  0.00  0.00     0.000 O
ATOM     47   O  IDS F   3     -21.403  52.656 175.4900  0.00  0.00     0.000 OA
ATOM     48   O  IDS F   3     -21.879  52.115 173.2360  0.00  0.00     0.000 OA
ATOM     49   O  IDS F   3     -21.146  50.431 174.7940  0.00  0.00     0.000 OA
ATOM     50   O  IDS F   3     -19.628  52.031 174.0570  0.00  0.00     0.000 O
ATOM     51   S  IDS F   3     -21.105  51.793 174.4050  0.00  0.00     0.000 S
ATOM     52   O  IDS F   3     -16.741  52.027 176.3500  0.00  0.00     0.000 O
ATOM     54  HD  IDS F   3     -17.520  51.779 176.0640  0.00  0.00     0.000 HD
ATOM     54   C  IDS F   3     -15.045  53.040 172.5630  0.00  0.00     0.000 C
ATOM     55   O  IDS F   3     -15.340  53.208 171.3820  0.00  0.00     0.000 OA
ATOM     56   O  IDS F   3     -13.926  53.416 172.9350  0.00  0.00     0.000 OA
BRANCH 41 57
ATOM     57  O4  SGN F   4     -16.880  49.772 174.4070  0.00  0.00     0.000 O
BRANCH 57 61
ATOM     58  C1  SGN F   4     -14.557  46.553 173.4140  0.00  0.00     0.000 C
ATOM     59  C2  SGN F   4     -13.884  47.931 173.3190  0.00  0.00     0.000 C
ATOM     60  C3  SGN F   4     -14.672  48.987 174.0740  0.00  0.00     0.000 C
ATOM     61  C4  SGN F   4     -16.118  48.953 173.5840  0.00  0.00     0.000 C
ATOM     62  C5  SGN F   4     -16.671  47.517 173.6680  0.00  0.00     0.000 C
ATOM     63  O5  SGN F   4     -15.873  46.633 172.9420  0.00  0.00     0.000 O
ATOM     64   N  SGN F   4     -12.510  47.864 173.7790  0.00  0.00     0.000 N
ATOM     66  HD  SGN F   4     -13.113  47.504 173.2720  0.00  0.00     0.000 HD
ATOM     66   S  SGN F   4     -11.371  47.436 172.6930  0.00  0.00     0.000 S
ATOM     67   O  SGN F   4     -11.614  46.039 172.3880  0.00  0.00     0.000 OA
ATOM     68   O  SGN F   4     -11.519  48.288 171.5150  0.00  0.00     0.000 OA
ATOM     69   O  SGN F   4     -10.135  47.639 173.4140  0.00  0.00     0.000 OA
ATOM     70   O  SGN F   4     -14.143  50.275 173.7890  0.00  0.00     0.000 O
ATOM     72  HD  SGN F   4     -14.745  49.914 173.2830  0.00  0.00     0.000 HD
ATOM     72   C  SGN F   4     -18.052  47.348 173.0880  0.00  0.00     0.000 C
ATOM     73   O  SGN F   4     -17.987  47.724 171.7320  0.00  0.00     0.000 O
ATOM     74   S  SGN F   4     -18.876  47.145 170.5930  0.00  0.00     0.000 S
ATOM     75   O  SGN F   4     -20.160  46.841 171.1330  0.00  0.00     0.000 OA
ATOM     76   O  SGN F   4     -18.951  48.162 169.5460  0.00  0.00     0.000 OA
ATOM     77   O  SGN F   4     -18.208  45.959 170.2200  0.00  0.00     0.000 OA
BRANCH 58 78
ATOM     78  O4  IDS F   5     -14.513  46.066 174.7340  0.00  0.00     0.000 O
BRANCH 78 82
ATOM     79  C1  IDS F   5     -14.619  43.941 177.4950  0.00  0.00     0.000 C
ATOM     80  C2  IDS F   5     -13.604  45.072 177.4120  0.00  0.00     0.000 C
ATOM     81  C3  IDS F   5     -12.821  45.041 176.0970  0.00  0.00     0.000 C
ATOM     82  C4  IDS F   5     -13.775  44.889 174.8930  0.00  0.00     0.000 C
ATOM     83  C5  IDS F   5     -14.730  43.718 175.1350  0.00  0.00     0.000 C
ATOM     84  O5  IDS F   5     -15.430  43.893 176.3490  0.00  0.00     0.000 O
ATOM     85   O  IDS F   5     -13.920  42.741 177.7120  0.00  0.00     0.000 OA
ATOM     86   O  IDS F   5     -14.299  46.286 177.4600  0.00  0.00     0.000 O
ATOM     87   S  IDS F   5     -13.732  47.706 177.7880  0.00  0.00     0.000 S
ATOM     88   O  IDS F   5     -12.364  47.734 177.3400  0.00  0.00     0.000 OA
ATOM     89   O  IDS F   5     -14.561  48.646 177.0670  0.00  0.00     0.000 OA
ATOM     90   O  IDS F   5     -13.830  47.822 179.2190  0.00  0.00     0.000 OA
ATOM     91   O  IDS F   5     -11.945  43.932 176.1320  0.00  0.00     0.000 O
ATOM     93  HD  IDS F   5     -12.370  43.370 175.6290  0.00  0.00     0.000 HD
ATOM     93   O  IDS F   5     -16.877  43.597 174.1260  0.00  0.00     0.000 OA
ATOM     94   O  IDS F   5     -15.282  43.103 172.8990  0.00  0.00     0.000 OA
ATOM     95   C  IDS F   5     -15.689  43.456 173.9890  0.00  0.00     0.000 C
ENDBRANCH 78 82
ENDBRANCH 58 78
ENDBRANCH 57 61
ENDBRANCH 41 57
ENDBRANCH 40 44
ENDBRANCH 20 40
ENDBRANCH 19 23
ENDBRANCH 1 19
TORSDOF 8
ENDMDL
MODEL 68
REMARK VINA RESULT:      -5.5      4.747      9.966
FFDIST PL LJ 2322 74 36 -1
ROOT
ATOM      1  C1  IDS F   1     -16.053  57.621 169.4690  0.00  0.00     0.000 C
ATOM      2  C2  IDS F   1     -15.527  57.550 168.0260  0.00  0.00     0.000 C
ATOM      3  C3  IDS F   1     -16.654  57.565 166.9650  0.00  0.00     0.000 C
ATOM      4  C4  IDS F   1     -17.835  58.500 167.3170  0.00  0.00     0.000 C
ATOM      5  C5  IDS F   1     -18.134  58.437 168.8190  0.00  0.00     0.000 C
ATOM      6  O5  IDS F   1     -16.977  58.673 169.5510  0.00  0.00     0.000 O
ATOM      7   S  IDS F   1     -13.618  58.821 166.5970  0.00  0.00     0.000 S
ATOM      8   O  IDS F   1     -14.321  58.480 165.3980  0.00  0.00     0.000 OA
ATOM      9   O  IDS F   1     -13.194  60.191 166.5770  0.00  0.00     0.000 OA
ATOM     10   O  IDS F   1     -12.554  57.899 166.9170  0.00  0.00     0.000 OA
ATOM     11   O  IDS F   1     -14.689  58.656 167.7590  0.00  0.00     0.000 O
ATOM     12   O  IDS F   1     -17.158  56.241 166.8110  0.00  0.00     0.000 O
ATOM     14  HD  IDS F   1     -17.968  55.998 166.6230  0.00  0.00     0.000 HD
ATOM     14   O  IDS F   1     -17.456  59.807 166.9650  0.00  0.00     0.000 O
ATOM     16  HD  IDS F   1     -18.266  59.565 166.7770  0.00  0.00     0.000 HD
ATOM     16   O  IDS F   1     -19.115  59.933 170.3900  0.00  0.00     0.000 OA
ATOM     17   O  IDS F   1     -20.283  59.490 168.7130  0.00  0.00     0.000 OA
ATOM     18   C  IDS F   1     -19.240  59.339 169.3280  0.00  0.00     0.000 C
ENDROOT
BRANCH 1 19
ATOM     19  O4  SGN F   2     -14.997  57.910 170.3200  0.00  0.00     0.000 O
BRANCH 19 23
ATOM     20  C1  SGN F   2     -14.885  54.842 173.1430  0.00  0.00     0.000 C
ATOM     21  C2  SGN F   2     -15.409  56.177 173.6490  0.00  0.00     0.000 C
ATOM     22  C3  SGN F   2     -15.927  57.038 172.4890  0.00  0.00     0.000 C
ATOM     23  C4  SGN F   2     -14.723  57.193 171.5050  0.00  0.00     0.000 C
ATOM     24  C5  SGN F   2     -14.343  55.813 171.0820  0.00  0.00     0.000 C
ATOM     25  O5  SGN F   2     -13.900  55.075 172.1760  0.00  0.00     0.000 O
ATOM     26   N  SGN F   2     -16.379  55.928 174.7430  0.00  0.00     0.000 N
ATOM     28  HD  SGN F   2     -17.163  56.232 174.9530  0.00  0.00     0.000 HD
ATOM     28   S  SGN F   2     -15.765  55.659 176.2780  0.00  0.00     0.000 S
ATOM     29   O  SGN F   2     -14.732  54.654 176.1630  0.00  0.00     0.000 OA
ATOM     30   O  SGN F   2     -15.242  56.941 176.6950  0.00  0.00     0.000 OA
ATOM     31   O  SGN F   2     -16.854  55.256 177.0910  0.00  0.00     0.000 OA
ATOM     32   O  SGN F   2     -16.316  58.304 173.0090  0.00  0.00     0.000 O
ATOM     34  HD  SGN F   2     -17.099  58.607 173.2190  0.00  0.00     0.000 HD
ATOM     34   C  SGN F   2     -13.230  55.807 170.0890  0.00  0.00     0.000 C
ATOM     35   O  SGN F   2     -12.203  56.522 170.6880  0.00  0.00     0.000 O
ATOM     36   S  SGN F   2     -10.770  56.669 170.1870  0.00  0.00     0.000 S
ATOM     37   O  SGN F   2     -10.552  58.092 170.1070  0.00  0.00     0.000 OA
ATOM     38   O  SGN F   2      -9.971  55.994 171.1860  0.00  0.00     0.000 OA
ATOM     39   O  SGN F   2     -10.703  56.014 168.8870  0.00  0.00     0.000 OA
BRANCH 20 40
ATOM     40  O4  IDS F   3     -15.914  54.052 172.6110  0.00  0.00     0.000 O
BRANCH 40 44
ATOM     41  C1  IDS F   3     -18.912  52.279 172.3590  0.00  0.00     0.000 C
ATOM     42  C2  IDS F   3     -18.790  53.418 173.3400  0.00  0.00     0.000 C
ATOM     43  C3  IDS F   3     -17.501  53.309 174.2420  0.00  0.00     0.000 C
ATOM     44  C4  IDS F   3     -16.273  52.946 173.4280  0.00  0.00     0.000 C
ATOM     45  C5  IDS F   3     -16.592  51.733 172.5550  0.00  0.00     0.000 C
ATOM     46  O5  IDS F   3     -17.666  52.031 171.6910  0.00  0.00     0.000 O
ATOM     47   O  IDS F   3     -19.355  56.558 173.8860  0.00  0.00     0.000 OA
ATOM     48   O  IDS F   3     -19.721  56.585 171.5490  0.00  0.00     0.000 OA
ATOM     49   O  IDS F   3     -21.020  55.164 172.9970  0.00  0.00     0.000 OA
ATOM     50   O  IDS F   3     -18.786  54.650 172.6100  0.00  0.00     0.000 O
ATOM     51   S  IDS F   3     -19.781  55.810 172.7590  0.00  0.00     0.000 S
ATOM     52   O  IDS F   3     -17.681  52.277 175.2070  0.00  0.00     0.000 O
ATOM     54  HD  IDS F   3     -18.240  52.805 174.8090  0.00  0.00     0.000 HD
ATOM     54   C  IDS F   3     -15.406  51.168 171.7670  0.00  0.00     0.000 C
ATOM     55   O  IDS F   3     -15.236  51.452 170.5840  0.00  0.00     0.000 OA
ATOM     56   O  IDS F   3     -14.579  50.418 172.3010  0.00  0.00     0.000 OA
BRANCH 41 57
ATOM     57  O4  SGN F   4     -19.385  51.152 173.0380  0.00  0.00     0.000 O
BRANCH 57 61
ATOM     58  C1  SGN F   4     -21.396  47.751 171.9700  0.00  0.00     0.000 C
ATOM     59  C2  SGN F   4     -19.862  47.655 171.9890  0.00  0.00     0.000 C
ATOM     60  C3  SGN F   4     -19.243  48.804 172.7660  0.00  0.00     0.000 C
ATOM     61  C4  SGN F   4     -19.790  50.115 172.2050  0.00  0.00     0.000 C
ATOM     62  C5  SGN F   4     -21.330  50.079 172.1770  0.00  0.00     0.000 C
ATOM     63  O5  SGN F   4     -21.788  48.986 171.4390  0.00  0.00     0.000 O
ATOM     64   N  SGN F   4     -19.434  46.371 172.5110  0.00  0.00     0.000 N
ATOM     66  HD  SGN F   4     -19.959  46.779 171.9560  0.00  0.00     0.000 HD
ATOM     66   S  SGN F   4     -19.316  45.131 171.4590  0.00  0.00     0.000 S
ATOM     67   O  SGN F   4     -20.674  44.813 171.0590  0.00  0.00     0.000 OA
ATOM     68   O  SGN F   4     -18.501  45.568 170.3280  0.00  0.00     0.000 OA
ATOM     69   O  SGN F   4     -18.712  44.083 172.2500  0.00  0.00     0.000 OA
ATOM     70   O  SGN F   4     -17.835  48.802 172.5850  0.00  0.00     0.000 O
ATOM     72  HD  SGN F   4     -18.360  49.209 172.0290  0.00  0.00     0.000 HD
ATOM     72   C  SGN F   4     -21.969  51.276 171.5220  0.00  0.00     0.000 C
ATOM     73   O  SGN F   4     -21.498  51.330 170.1950  0.00  0.00     0.000 O
ATOM     74   S  SGN F   4     -22.286  51.903 168.9820  0.00  0.00     0.000 S
ATOM     75   O  SGN F   4     -23.094  52.984 169.4390  0.00  0.00     0.000 OA
ATOM     76   O  SGN F   4     -21.300  52.339 167.9950  0.00  0.00     0.000 OA
ATOM     77   O  SGN F   4     -23.097  50.824 168.5720  0.00  0.00     0.000 OA
BRANCH 58 78
ATOM     78  O4  IDS F   5     -21.925  47.553 173.2590  0.00  0.00     0.000 O
BRANCH 78 82
ATOM     79  C1  IDS F   5     -23.847  46.847 176.0790  0.00  0.00     0.000 C
ATOM     80  C2  IDS F   5     -22.646  45.987 175.7110  0.00  0.00     0.000 C
ATOM     81  C3  IDS F   5     -22.707  45.513 174.2580  0.00  0.00     0.000 C
ATOM     82  C4  IDS F   5     -23.023  46.689 173.3090  0.00  0.00     0.000 C
ATOM     83  C5  IDS F   5     -24.247  47.451 173.8200  0.00  0.00     0.000 C
ATOM     84  O5  IDS F   5     -24.043  47.881 175.1500  0.00  0.00     0.000 O
ATOM     85   O  IDS F   5     -24.968  46.006 176.1950  0.00  0.00     0.000 OA
ATOM     86   O  IDS F   5     -21.492  46.767 175.8520  0.00  0.00     0.000 O
ATOM     87   S  IDS F   5     -20.011  46.281 175.9690  0.00  0.00     0.000 S
ATOM     88   O  IDS F   5     -19.903  45.054 175.2240  0.00  0.00     0.000 OA
ATOM     89   O  IDS F   5     -19.196  47.333 175.4060  0.00  0.00     0.000 OA
ATOM     90   O  IDS F   5     -19.801  46.072 177.3770  0.00  0.00     0.000 OA
ATOM     91   O  IDS F   5     -23.736  44.549 174.1520  0.00  0.00     0.000 O
ATOM     93  HD  IDS F   5     -24.365  45.018 173.7870  0.00  0.00     0.000 HD
ATOM     93   O  IDS F   5     -24.615  49.746 173.3290  0.00  0.00     0.000 OA
ATOM     94   O  IDS F   5     -25.065  48.420 171.8000  0.00  0.00     0.000 OA
ATOM     95   C  IDS F   5     -24.669  48.609 172.9350  0.00  0.00     0.000 C
ENDBRANCH 78 82
ENDBRANCH 58 78
ENDBRANCH 57 61
ENDBRANCH 41 57
ENDBRANCH 40 44
ENDBRANCH 20 40
ENDBRANCH 19 23
ENDBRANCH 1 19
TORSDOF 8
ENDMDL
MODEL 69
REMARK VINA RESULT:      -5.5      3.537      6.553
FFDIST PL LJ 2322 74 36 -1
ROOT
ATOM      1  C1  IDS F   1     -10.624  46.018 174.4070  0.00  0.00     0.000 C
ATOM      2  C2  IDS F   1     -10.910  44.600 174.9290  0.00  0.00     0.000 C
ATOM      3  C3  IDS F   1      -9.766  43.600 174.6330  0.00  0.00     0.000 C
ATOM      4  C4  IDS F   1      -8.350  44.208 174.7670  0.00  0.00     0.000 C
ATOM      5  C5  IDS F   1      -8.334  45.643 174.2290  0.00  0.00     0.000 C
ATOM      6  O5  IDS F   1      -9.339  46.393 174.8270  0.00  0.00     0.000 O
ATOM      7   S  IDS F   1     -11.780  43.533 177.2540  0.00  0.00     0.000 S
ATOM      8   O  IDS F   1     -11.152  42.297 176.8950  0.00  0.00     0.000 OA
ATOM      9   O  IDS F   1     -11.511  43.873 178.6210  0.00  0.00     0.000 OA
ATOM     10   O  IDS F   1     -13.185  43.578 176.9220  0.00  0.00     0.000 OA
ATOM     11   O  IDS F   1     -11.088  44.625 176.3310  0.00  0.00     0.000 O
ATOM     12   O  IDS F   1      -9.920  43.106 173.3060  0.00  0.00     0.000 O
ATOM     14  HD  IDS F   1      -9.299  42.873 172.7490  0.00  0.00     0.000 HD
ATOM     14   O  IDS F   1      -8.022  44.212 176.1350  0.00  0.00     0.000 O
ATOM     16  HD  IDS F   1      -7.400  43.979 175.5780  0.00  0.00     0.000 HD
ATOM     16   O  IDS F   1      -7.006  47.572 174.6590  0.00  0.00     0.000 OA
ATOM     17   O  IDS F   1      -5.951  45.856 174.0960  0.00  0.00     0.000 OA
ATOM     18   C  IDS F   1      -7.021  46.392 174.3370  0.00  0.00     0.000 C
ENDROOT
BRANCH 1 19
ATOM     19  O4  SGN F   2     -11.535  46.898 174.9730  0.00  0.00     0.000 O
BRANCH 19 23
ATOM     20  C1  SGN F   2     -15.488  48.019 174.2610  0.00  0.00     0.000 C
ATOM     21  C2  SGN F   2     -15.263  47.175 175.5050  0.00  0.00     0.000 C
ATOM     22  C3  SGN F   2     -13.807  47.280 175.9830  0.00  0.00     0.000 C
ATOM     23  C4  SGN F   2     -12.930  46.823 174.7730  0.00  0.00     0.000 C
ATOM     24  C5  SGN F   2     -13.243  47.753 173.6490  0.00  0.00     0.000 C
ATOM     25  O5  SGN F   2     -14.577  47.627 173.2720  0.00  0.00     0.000 O
ATOM     26   N  SGN F   2     -16.292  47.523 176.5140  0.00  0.00     0.000 N
ATOM     28  HD  SGN F   2     -16.291  47.685 177.3650  0.00  0.00     0.000 HD
ATOM     28   S  SGN F   2     -17.795  46.796 176.3710  0.00  0.00     0.000 S
ATOM     29   O  SGN F   2     -18.228  46.961 175.0010  0.00  0.00     0.000 OA
ATOM     30   O  SGN F   2     -17.567  45.410 176.7140  0.00  0.00     0.000 OA
ATOM     31   O  SGN F   2     -18.647  47.428 177.3100  0.00  0.00     0.000 OA
ATOM     32   O  SGN F   2     -13.634  46.401 177.0880  0.00  0.00     0.000 O
ATOM     34  HD  SGN F   2     -13.633  46.564 177.9390  0.00  0.00     0.000 HD
ATOM     34   C  SGN F   2     -12.431  47.469 172.4300  0.00  0.00     0.000 C
ATOM     35   O  SGN F   2     -12.660  46.132 172.1430  0.00  0.00     0.000 O
ATOM     36   S  SGN F   2     -12.220  45.370 170.8970  0.00  0.00     0.000 S
ATOM     37   O  SGN F   2     -11.476  44.242 171.3990  0.00  0.00     0.000 OA
ATOM     38   O  SGN F   2     -13.458  45.024 170.2330  0.00  0.00     0.000 OA
ATOM     39   O  SGN F   2     -11.402  46.280 170.1060  0.00  0.00     0.000 OA
BRANCH 20 40
ATOM     40  O4  IDS F   3     -15.353  49.388 174.5340  0.00  0.00     0.000 O
BRANCH 40 44
ATOM     41  C1  IDS F   3     -16.470  52.575 173.6460  0.00  0.00     0.000 C
ATOM     42  C2  IDS F   3     -17.065  51.356 172.9870  0.00  0.00     0.000 C
ATOM     43  C3  IDS F   3     -15.970  50.365 172.4370  0.00  0.00     0.000 C
ATOM     44  C4  IDS F   3     -14.854  50.147 173.4410  0.00  0.00     0.000 C
ATOM     45  C5  IDS F   3     -14.352  51.504 173.9330  0.00  0.00     0.000 C
ATOM     46  O5  IDS F   3     -15.406  52.216 174.5410  0.00  0.00     0.000 O
ATOM     47   O  IDS F   3     -19.513  49.238 172.9800  0.00  0.00     0.000 OA
ATOM     48   O  IDS F   3     -19.942  50.193 175.1020  0.00  0.00     0.000 OA
ATOM     49   O  IDS F   3     -19.910  51.546 173.1100  0.00  0.00     0.000 OA
ATOM     50   O  IDS F   3     -17.910  50.693 173.9340  0.00  0.00     0.000 O
ATOM     51   S  IDS F   3     -19.411  50.403 173.7820  0.00  0.00     0.000 S
ATOM     52   O  IDS F   3     -15.375  50.914 171.2650  0.00  0.00     0.000 O
ATOM     54  HD  IDS F   3     -16.165  50.997 171.6100  0.00  0.00     0.000 HD
ATOM     54   C  IDS F   3     -13.133  51.451 174.8600  0.00  0.00     0.000 C
ATOM     55   O  IDS F   3     -13.259  51.522 176.0800  0.00  0.00     0.000 OA
ATOM     56   O  IDS F   3     -11.988  51.323 174.4080  0.00  0.00     0.000 OA
BRANCH 41 57
ATOM     57  O4  SGN F   4     -16.051  53.463 172.6510  0.00  0.00     0.000 O
BRANCH 57 61
ATOM     58  C1  SGN F   4     -15.909  57.524 172.1680  0.00  0.00     0.000 C
ATOM     59  C2  SGN F   4     -14.749  56.893 172.9540  0.00  0.00     0.000 C
ATOM     60  C3  SGN F   4     -14.681  55.392 172.7340  0.00  0.00     0.000 C
ATOM     61  C4  SGN F   4     -16.054  54.796 173.0410  0.00  0.00     0.000 C
ATOM     62  C5  SGN F   4     -17.144  55.541 172.2470  0.00  0.00     0.000 C
ATOM     63  O5  SGN F   4     -17.115  56.908 172.5240  0.00  0.00     0.000 O
ATOM     64   N  SGN F   4     -13.493  57.536 172.6200  0.00  0.00     0.000 N
ATOM     66  HD  SGN F   4     -14.319  57.657 172.8490  0.00  0.00     0.000 HD
ATOM     66   S  SGN F   4     -13.087  58.877 173.4530  0.00  0.00     0.000 S
ATOM     67   O  SGN F   4     -14.025  59.905 173.0420  0.00  0.00     0.000 OA
ATOM     68   O  SGN F   4     -13.192  58.578 174.8800  0.00  0.00     0.000 OA
ATOM     69   O  SGN F   4     -11.738  59.148 173.0080  0.00  0.00     0.000 OA
ATOM     70   O  SGN F   4     -13.742  54.818 173.6320  0.00  0.00     0.000 O
ATOM     72  HD  SGN F   4     -14.569  54.939 173.8610  0.00  0.00     0.000 HD
ATOM     72   C  SGN F   4     -18.552  55.115 172.5740  0.00  0.00     0.000 C
ATOM     73   O  SGN F   4     -18.755  55.356 173.9470  0.00  0.00     0.000 O
ATOM     74   S  SGN F   4     -20.119  55.711 174.6070  0.00  0.00     0.000 S
ATOM     75   O  SGN F   4     -21.154  55.037 173.8960  0.00  0.00     0.000 OA
ATOM     76   O  SGN F   4     -20.047  55.280 176.0020  0.00  0.00     0.000 OA
ATOM     77   O  SGN F   4     -20.225  57.105 174.4220  0.00  0.00     0.000 OA
BRANCH 58 78
ATOM     78  O4  IDS F   5     -15.678  57.441 170.7830  0.00  0.00     0.000 O
BRANCH 78 82
ATOM     79  C1  IDS F   5     -15.511  57.821 167.3220  0.00  0.00     0.000 C
ATOM     80  C2  IDS F   5     -14.348  58.231 168.2150  0.00  0.00     0.000 C
ATOM     81  C3  IDS F   5     -14.796  59.155 169.3490  0.00  0.00     0.000 C
ATOM     82  C4  IDS F   5     -16.040  58.584 170.0640  0.00  0.00     0.000 C
ATOM     83  C5  IDS F   5     -17.108  58.219 169.0310  0.00  0.00     0.000 C
ATOM     84  O5  IDS F   5     -16.585  57.320 168.0750  0.00  0.00     0.000 O
ATOM     85   O  IDS F   5     -15.872  58.930 166.5380  0.00  0.00     0.000 OA
ATOM     86   O  IDS F   5     -13.818  57.074 168.7990  0.00  0.00     0.000 O
ATOM     87   S  IDS F   5     -12.420  56.891 169.4740  0.00  0.00     0.000 S
ATOM     88   O  IDS F   5     -12.053  58.159 170.0480  0.00  0.00     0.000 OA
ATOM     89   O  IDS F   5     -12.590  55.867 170.4800  0.00  0.00     0.000 OA
ATOM     90   O  IDS F   5     -11.538  56.514 168.4020  0.00  0.00     0.000 OA
ATOM     91   O  IDS F   5     -15.125  60.411 168.7890  0.00  0.00     0.000 O
ATOM     93  HD  IDS F   5     -15.990  60.369 168.7860  0.00  0.00     0.000 HD
ATOM     93   O  IDS F   5     -18.749  56.549 169.4320  0.00  0.00     0.000 OA
ATOM     94   O  IDS F   5     -19.093  58.380 170.3420  0.00  0.00     0.000 OA
ATOM     95   C  IDS F   5     -18.392  57.682 169.6340  0.00  0.00     0.000 C
ENDBRANCH 78 82
ENDBRANCH 58 78
ENDBRANCH 57 61
ENDBRANCH 41 57
ENDBRANCH 40 44
ENDBRANCH 20 40
ENDBRANCH 19 23
ENDBRANCH 1 19
TORSDOF 8
ENDMDL
MODEL 70
REMARK VINA RESULT:      -5.5      3.186      6.389
FFDIST PL LJ 2322 74 36 -1
ROOT
ATOM      1  C1  IDS F   1     -13.797  48.574 174.3980  0.00  0.00     0.000 C
ATOM      2  C2  IDS F   1     -12.452  49.142 173.9180  0.00  0.00     0.000 C
ATOM      3  C3  IDS F   1     -11.720  49.972 175.0010  0.00  0.00     0.000 C
ATOM      4  C4  IDS F   1     -11.858  49.400 176.4310  0.00  0.00     0.000 C
ATOM      5  C5  IDS F   1     -13.271  48.846 176.6490  0.00  0.00     0.000 C
ATOM      6  O5  IDS F   1     -13.597  47.950 175.6380  0.00  0.00     0.000 O
ATOM      7   S  IDS F   1     -10.284  48.161 172.6380  0.00  0.00     0.000 S
ATOM      8   O  IDS F   1      -9.501  49.220 173.1990  0.00  0.00     0.000 OA
ATOM      9   O  IDS F   1      -9.602  46.903 172.7390  0.00  0.00     0.000 OA
ATOM     10   O  IDS F   1     -10.758  48.446 171.3030  0.00  0.00     0.000 OA
ATOM     11   O  IDS F   1     -11.585  48.089 173.5460  0.00  0.00     0.000 O
ATOM     12   O  IDS F   1     -12.243  51.298 174.9930  0.00  0.00     0.000 O
ATOM     14  HD  IDS F   1     -12.334  51.838 175.6650  0.00  0.00     0.000 HD
ATOM     14   O  IDS F   1     -10.918  48.363 176.5610  0.00  0.00     0.000 O
ATOM     16  HD  IDS F   1     -11.009  48.902 177.2330  0.00  0.00     0.000 HD
ATOM     16   O  IDS F   1     -14.209  47.178 178.0650  0.00  0.00     0.000 OA
ATOM     17   O  IDS F   1     -13.135  48.689 179.0350  0.00  0.00     0.000 OA
ATOM     18   C  IDS F   1     -13.547  48.204 177.9930  0.00  0.00     0.000 C
ENDROOT
BRANCH 1 19
ATOM     19  O4  SGN F   2     -14.227  47.611 173.4970  0.00  0.00     0.000 O
BRANCH 19 23
ATOM     20  C1  SGN F   2     -18.032  48.777 172.2490  0.00  0.00     0.000 C
ATOM     21  C2  SGN F   2     -17.992  47.594 173.2030  0.00  0.00     0.000 C
ATOM     22  C3  SGN F   2     -16.689  47.589 174.0160  0.00  0.00     0.000 C
ATOM     23  C4  SGN F   2     -15.533  47.559 172.9640  0.00  0.00     0.000 C
ATOM     24  C5  SGN F   2     -15.693  48.783 172.1260  0.00  0.00     0.000 C
ATOM     25  O5  SGN F   2     -16.897  48.741 171.4290  0.00  0.00     0.000 O
ATOM     26   N  SGN F   2     -19.241  47.579 174.0010  0.00  0.00     0.000 N
ATOM     28  HD  SGN F   2     -19.438  47.468 174.8370  0.00  0.00     0.000 HD
ATOM     28   S  SGN F   2     -20.599  46.888 173.3030  0.00  0.00     0.000 S
ATOM     29   O  SGN F   2     -20.746  47.458 171.9820  0.00  0.00     0.000 OA
ATOM     30   O  SGN F   2     -20.311  45.472 173.2630  0.00  0.00     0.000 OA
ATOM     31   O  SGN F   2     -21.690  47.169 174.1620  0.00  0.00     0.000 OA
ATOM     32   O  SGN F   2     -16.667  46.416 174.8200  0.00  0.00     0.000 O
ATOM     34  HD  SGN F   2     -16.863  46.305 175.6560  0.00  0.00     0.000 HD
ATOM     34   C  SGN F   2     -14.616  48.918 171.1020  0.00  0.00     0.000 C
ATOM     35   O  SGN F   2     -14.643  47.731 170.3860  0.00  0.00     0.000 O
ATOM     36   S  SGN F   2     -13.875  47.408 169.1090  0.00  0.00     0.000 S
ATOM     37   O  SGN F   2     -13.144  46.204 169.4130  0.00  0.00     0.000 OA
ATOM     38   O  SGN F   2     -14.902  47.250 168.1030  0.00  0.00     0.000 OA
ATOM     39   O  SGN F   2     -13.003  48.544 168.8370  0.00  0.00     0.000 OA
BRANCH 20 40
ATOM     40  O4  IDS F   3     -18.096  49.996 172.9390  0.00  0.00     0.000 O
BRANCH 40 44
ATOM     41  C1  IDS F   3     -18.924  53.184 174.1000  0.00  0.00     0.000 C
ATOM     42  C2  IDS F   3     -20.014  52.202 173.7500  0.00  0.00     0.000 C
ATOM     43  C3  IDS F   3     -19.813  51.550 172.3290  0.00  0.00     0.000 C
ATOM     44  C4  IDS F   3     -18.377  51.114 172.1080  0.00  0.00     0.000 C
ATOM     45  C5  IDS F   3     -17.443  52.273 172.4590  0.00  0.00     0.000 C
ATOM     46  O5  IDS F   3     -17.625  52.647 173.8060  0.00  0.00     0.000 O
ATOM     47   O  IDS F   3     -22.096  49.993 174.8760  0.00  0.00     0.000 OA
ATOM     48   O  IDS F   3     -20.744  50.153 176.8110  0.00  0.00     0.000 OA
ATOM     49   O  IDS F   3     -21.869  52.085 175.9150  0.00  0.00     0.000 OA
ATOM     50   O  IDS F   3     -20.058  51.190 174.7630  0.00  0.00     0.000 O
ATOM     51   S  IDS F   3     -21.258  50.833 175.6530  0.00  0.00     0.000 S
ATOM     52   O  IDS F   3     -20.119  52.505 171.3180  0.00  0.00     0.000 O
ATOM     54  HD  IDS F   3     -20.413  52.399 172.1260  0.00  0.00     0.000 HD
ATOM     54   C  IDS F   3     -15.960  52.026 172.1630  0.00  0.00     0.000 C
ATOM     55   O  IDS F   3     -15.184  51.680 173.0510  0.00  0.00     0.000 OA
ATOM     56   O  IDS F   3     -15.502  52.159 171.0210  0.00  0.00     0.000 OA
BRANCH 41 57
ATOM     57  O4  SGN F   4     -19.168  54.384 173.4260  0.00  0.00     0.000 O
BRANCH 57 61
ATOM     58  C1  SGN F   4     -17.527  58.128 173.6170  0.00  0.00     0.000 C
ATOM     59  C2  SGN F   4     -16.607  56.962 174.0120  0.00  0.00     0.000 C
ATOM     60  C3  SGN F   4     -17.159  55.631 173.5320  0.00  0.00     0.000 C
ATOM     61  C4  SGN F   4     -18.598  55.500 174.0270  0.00  0.00     0.000 C
ATOM     62  C5  SGN F   4     -19.412  56.746 173.6280  0.00  0.00     0.000 C
ATOM     63  O5  SGN F   4     -18.815  57.907 174.1180  0.00  0.00     0.000 O
ATOM     64   N  SGN F   4     -15.259  57.184 173.5250  0.00  0.00     0.000 N
ATOM     66  HD  SGN F   4     -15.933  57.528 173.9460  0.00  0.00     0.000 HD
ATOM     66   S  SGN F   4     -14.252  58.058 174.4630  0.00  0.00     0.000 S
ATOM     67   O  SGN F   4     -14.764  59.415 174.4470  0.00  0.00     0.000 OA
ATOM     68   O  SGN F   4     -14.266  57.484 175.8070  0.00  0.00     0.000 OA
ATOM     69   O  SGN F   4     -12.980  57.937 173.7860  0.00  0.00     0.000 OA
ATOM     70   O  SGN F   4     -16.402  54.568 174.0940  0.00  0.00     0.000 O
ATOM     72  HD  SGN F   4     -17.076  54.913 174.5150  0.00  0.00     0.000 HD
ATOM     72   C  SGN F   4     -20.814  56.774 174.1770  0.00  0.00     0.000 C
ATOM     73   O  SGN F   4     -20.716  56.736 175.5820  0.00  0.00     0.000 O
ATOM     74   S  SGN F   4     -21.728  57.378 176.5750  0.00  0.00     0.000 S
ATOM     75   O  SGN F   4     -23.031  57.300 176.0030  0.00  0.00     0.000 OA
ATOM     76   O  SGN F   4     -21.636  56.630 177.8270  0.00  0.00     0.000 OA
ATOM     77   O  SGN F   4     -21.308  58.722 176.6550  0.00  0.00     0.000 OA
BRANCH 58 78
ATOM     78  O4  IDS F   5     -17.541  58.302 172.2200  0.00  0.00     0.000 O
BRANCH 78 82
ATOM     79  C1  IDS F   5     -17.714  59.432 168.9270  0.00  0.00     0.000 C
ATOM     80  C2  IDS F   5     -16.382  59.049 169.5580  0.00  0.00     0.000 C
ATOM     81  C3  IDS F   5     -16.160  59.756 170.8970  0.00  0.00     0.000 C
ATOM     82  C4  IDS F   5     -17.406  59.628 171.7990  0.00  0.00     0.000 C
ATOM     83  C5  IDS F   5     -18.655  60.043 171.0180  0.00  0.00     0.000 C
ATOM     84  O5  IDS F   5     -18.775  59.281 169.8350  0.00  0.00     0.000 O
ATOM     85   O  IDS F   5     -17.604  60.745 168.4390  0.00  0.00     0.000 OA
ATOM     86   O  IDS F   5     -16.398  57.671 169.8070  0.00  0.00     0.000 O
ATOM     87   S  IDS F   5     -15.179  56.730 170.0800  0.00  0.00     0.000 S
ATOM     88   O  IDS F   5     -14.169  57.518 170.7350  0.00  0.00     0.000 OA
ATOM     89   O  IDS F   5     -15.674  55.667 170.9250  0.00  0.00     0.000 OA
ATOM     90   O  IDS F   5     -14.755  56.289 168.7780  0.00  0.00     0.000 OA
ATOM     91   O  IDS F   5     -15.920  61.125 170.6380  0.00  0.00     0.000 O
ATOM     93  HD  IDS F   5     -16.688  61.469 170.8420  0.00  0.00     0.000 HD
ATOM     93   O  IDS F   5     -20.820  59.221 171.5480  0.00  0.00     0.000 OA
ATOM     94   O  IDS F   5     -20.103  60.721 172.7870  0.00  0.00     0.000 OA
ATOM     95   C  IDS F   5     -19.937  59.991 171.8280  0.00  0.00     0.000 C
ENDBRANCH 78 82
ENDBRANCH 58 78
ENDBRANCH 57 61
ENDBRANCH 41 57
ENDBRANCH 40 44
ENDBRANCH 20 40
ENDBRANCH 19 23
ENDBRANCH 1 19
TORSDOF 8
ENDMDL
MODEL 71
REMARK VINA RESULT:      -5.5      4.277     11.531
FFDIST PL LJ 2322 74 36 -1
ROOT
ATOM      1  C1  IDS F   1     -21.238  46.148 171.9630  0.00  0.00     0.000 C
ATOM      2  C2  IDS F   1     -21.559  45.142 170.8450  0.00  0.00     0.000 C
ATOM      3  C3  IDS F   1     -20.900  43.759 171.0640  0.00  0.00     0.000 C
ATOM      4  C4  IDS F   1     -20.877  43.300 172.5410  0.00  0.00     0.000 C
ATOM      5  C5  IDS F   1     -20.592  44.491 173.4630  0.00  0.00     0.000 C
ATOM      6  O5  IDS F   1     -21.477  45.528 173.1980  0.00  0.00     0.000 O
ATOM      7   S  IDS F   1     -23.791  44.322 169.5630  0.00  0.00     0.000 S
ATOM      8   O  IDS F   1     -23.124  43.099 169.2330  0.00  0.00     0.000 OA
ATOM      9   O  IDS F   1     -25.125  44.075 170.0290  0.00  0.00     0.000 OA
ATOM     10   O  IDS F   1     -23.729  45.308 168.5100  0.00  0.00     0.000 OA
ATOM     11   O  IDS F   1     -22.954  44.931 170.7680  0.00  0.00     0.000 O
ATOM     12   O  IDS F   1     -19.558  43.809 170.5870  0.00  0.00     0.000 O
ATOM     14  HD  IDS F   1     -18.868  43.385 170.8930  0.00  0.00     0.000 HD
ATOM     14   O  IDS F   1     -22.144  42.767 172.8350  0.00  0.00     0.000 O
ATOM     16  HD  IDS F   1     -21.454  42.343 173.1420  0.00  0.00     0.000 HD
ATOM     16   O  IDS F   1     -21.092  45.000 175.7350  0.00  0.00     0.000 OA
ATOM     17   O  IDS F   1     -20.070  43.202 175.4150  0.00  0.00     0.000 OA
ATOM     18   C  IDS F   1     -20.585  44.208 174.9520  0.00  0.00     0.000 C
ENDROOT
BRANCH 1 19
ATOM     19  O4  SGN F   2     -22.097  47.232 171.8540  0.00  0.00     0.000 O
BRANCH 19 23
ATOM     20  C1  SGN F   2     -19.691  50.596 172.3920  0.00  0.00     0.000 C
ATOM     21  C2  SGN F   2     -20.819  50.432 173.3990  0.00  0.00     0.000 C
ATOM     22  C3  SGN F   2     -21.274  48.968 173.4780  0.00  0.00     0.000 C
ATOM     23  C4  SGN F   2     -21.695  48.574 172.0260  0.00  0.00     0.000 C
ATOM     24  C5  SGN F   2     -20.488  48.764 171.1700  0.00  0.00     0.000 C
ATOM     25  O5  SGN F   2     -20.111  50.103 171.1500  0.00  0.00     0.000 O
ATOM     26   N  SGN F   2     -20.407  51.044 174.6850  0.00  0.00     0.000 N
ATOM     28  HD  SGN F   2     -20.447  50.812 175.5180  0.00  0.00     0.000 HD
ATOM     28   S  SGN F   2     -20.587  52.702 174.8480  0.00  0.00     0.000 S
ATOM     29   O  SGN F   2     -19.997  53.320 173.6820  0.00  0.00     0.000 OA
ATOM     30   O  SGN F   2     -22.016  52.910 174.9180  0.00  0.00     0.000 OA
ATOM     31   O  SGN F   2     -19.951  53.066 176.0610  0.00  0.00     0.000 OA
ATOM     32   O  SGN F   2     -22.386  48.892 174.3620  0.00  0.00     0.000 O
ATOM     34  HD  SGN F   2     -22.426  48.660 175.1950  0.00  0.00     0.000 HD
ATOM     34   C  SGN F   2     -20.727  48.371 169.7510  0.00  0.00     0.000 C
ATOM     35   O  SGN F   2     -21.831  49.109 169.3500  0.00  0.00     0.000 O
ATOM     36   S  SGN F   2     -22.392  49.230 167.9370  0.00  0.00     0.000 S
ATOM     37   O  SGN F   2     -23.775  48.843 168.0560  0.00  0.00     0.000 OA
ATOM     38   O  SGN F   2     -22.185  50.618 167.5870  0.00  0.00     0.000 OA
ATOM     39   O  SGN F   2     -21.624  48.324 167.0930  0.00  0.00     0.000 OA
BRANCH 20 40
ATOM     40  O4  IDS F   3     -18.526  49.935 172.8090  0.00  0.00     0.000 O
BRANCH 40 44
ATOM     41  C1  IDS F   3     -15.200  49.362 173.7020  0.00  0.00     0.000 C
ATOM     42  C2  IDS F   3     -15.792  50.741 173.8460  0.00  0.00     0.000 C
ATOM     43  C3  IDS F   3     -16.528  51.227 172.5390  0.00  0.00     0.000 C
ATOM     44  C4  IDS F   3     -17.410  50.140 171.9540  0.00  0.00     0.000 C
ATOM     45  C5  IDS F   3     -16.600  48.849 171.8340  0.00  0.00     0.000 C
ATOM     46  O5  IDS F   3     -16.136  48.452 173.1050  0.00  0.00     0.000 O
ATOM     47   O  IDS F   3     -17.170  52.872 175.8560  0.00  0.00     0.000 OA
ATOM     48   O  IDS F   3     -17.378  50.966 177.2420  0.00  0.00     0.000 OA
ATOM     49   O  IDS F   3     -15.223  51.714 176.4670  0.00  0.00     0.000 OA
ATOM     50   O  IDS F   3     -16.695  50.736 174.9560  0.00  0.00     0.000 O
ATOM     51   S  IDS F   3     -16.614  51.617 176.2120  0.00  0.00     0.000 S
ATOM     52   O  IDS F   3     -15.565  51.562 171.5450  0.00  0.00     0.000 O
ATOM     54  HD  IDS F   3     -15.540  51.586 172.4100  0.00  0.00     0.000 HD
ATOM     54   C  IDS F   3     -17.321  47.690 171.1380  0.00  0.00     0.000 C
ATOM     55   O  IDS F   3     -17.864  46.798 171.7850  0.00  0.00     0.000 OA
ATOM     56   O  IDS F   3     -17.387  47.624 169.9030  0.00  0.00     0.000 OA
BRANCH 41 57
ATOM     57  O4  SGN F   4     -14.011  49.458 172.9720  0.00  0.00     0.000 O
BRANCH 57 61
ATOM     58  C1  SGN F   4     -12.895  45.548 173.4390  0.00  0.00     0.000 C
ATOM     59  C2  SGN F   4     -12.639  46.475 174.6370  0.00  0.00     0.000 C
ATOM     60  C3  SGN F   4     -13.433  47.764 174.5220  0.00  0.00     0.000 C
ATOM     61  C4  SGN F   4     -13.140  48.392 173.1610  0.00  0.00     0.000 C
ATOM     62  C5  SGN F   4     -13.373  47.360 172.0410  0.00  0.00     0.000 C
ATOM     63  O5  SGN F   4     -12.596  46.219 172.2470  0.00  0.00     0.000 O
ATOM     64   N  SGN F   4     -12.917  45.790 175.8850  0.00  0.00     0.000 N
ATOM     66  HD  SGN F   4     -12.514  45.746 175.1190  0.00  0.00     0.000 HD
ATOM     66   S  SGN F   4     -11.716  44.907 176.5440  0.00  0.00     0.000 S
ATOM     67   O  SGN F   4     -11.520  43.773 175.6600  0.00  0.00     0.000 OA
ATOM     68   O  SGN F   4     -10.523  45.747 176.6290  0.00  0.00     0.000 OA
ATOM     69   O  SGN F   4     -12.256  44.521 177.8290  0.00  0.00     0.000 OA
ATOM     70   O  SGN F   4     -13.013  48.677 175.5260  0.00  0.00     0.000 O
ATOM     72  HD  SGN F   4     -12.610  48.633 174.7610  0.00  0.00     0.000 HD
ATOM     72   C  SGN F   4     -12.990  47.839 170.6640  0.00  0.00     0.000 C
ATOM     73   O  SGN F   4     -11.619  48.161 170.6980  0.00  0.00     0.000 O
ATOM     74   S  SGN F   4     -10.639  48.059 169.4940  0.00  0.00     0.000 S
ATOM     75   O  SGN F   4     -11.358  48.361 168.3000  0.00  0.00     0.000 OA
ATOM     76   O  SGN F   4      -9.558  49.013 169.7350  0.00  0.00     0.000 OA
ATOM     77   O  SGN F   4     -10.245  46.704 169.4990  0.00  0.00     0.000 OA
BRANCH 58 78
ATOM     78  O4  IDS F   5     -14.222  45.078 173.4460  0.00  0.00     0.000 O
BRANCH 78 82
ATOM     79  C1  IDS F   5     -17.218  43.319 173.1640  0.00  0.00     0.000 C
ATOM     80  C2  IDS F   5     -16.538  43.502 174.5140  0.00  0.00     0.000 C
ATOM     81  C3  IDS F   5     -15.068  43.079 174.4760  0.00  0.00     0.000 C
ATOM     82  C4  IDS F   5     -14.349  43.698 173.2580  0.00  0.00     0.000 C
ATOM     83  C5  IDS F   5     -15.160  43.431 171.9880  0.00  0.00     0.000 C
ATOM     84  O5  IDS F   5     -16.478  43.917 172.1300  0.00  0.00     0.000 O
ATOM     85   O  IDS F   5     -17.416  41.942 172.9580  0.00  0.00     0.000 OA
ATOM     86   O  IDS F   5     -16.576  44.864 174.8380  0.00  0.00     0.000 O
ATOM     87   S  IDS F   5     -16.370  45.524 176.2410  0.00  0.00     0.000 S
ATOM     88   O  IDS F   5     -15.465  44.684 176.9800  0.00  0.00     0.000 OA
ATOM     89   O  IDS F   5     -15.816  46.834 175.9910  0.00  0.00     0.000 OA
ATOM     90   O  IDS F   5     -17.682  45.550 176.8330  0.00  0.00     0.000 OA
ATOM     91   O  IDS F   5     -15.019  41.670 174.3700  0.00  0.00     0.000 O
ATOM     93  HD  IDS F   5     -14.832  41.574 173.5300  0.00  0.00     0.000 HD
ATOM     93   O  IDS F   5     -15.041  44.842 170.0810  0.00  0.00     0.000 OA
ATOM     94   O  IDS F   5     -13.455  43.529 170.3230  0.00  0.00     0.000 OA
ATOM     95   C  IDS F   5     -14.519  43.966 170.7210  0.00  0.00     0.000 C
ENDBRANCH 78 82
ENDBRANCH 58 78
ENDBRANCH 57 61
ENDBRANCH 41 57
ENDBRANCH 40 44
ENDBRANCH 20 40
ENDBRANCH 19 23
ENDBRANCH 1 19
TORSDOF 8
ENDMDL
MODEL 72
REMARK VINA RESULT:      -5.4      4.728      8.743
FFDIST PL LJ 2322 74 36 -1
ROOT
ATOM      1  C1  IDS F   1      -8.801  47.766 170.6080  0.00  0.00     0.000 C
ATOM      2  C2  IDS F   1      -8.682  46.777 169.4370  0.00  0.00     0.000 C
ATOM      3  C3  IDS F   1      -8.274  47.454 168.1060  0.00  0.00     0.000 C
ATOM      4  C4  IDS F   1      -7.240  48.592 168.2730  0.00  0.00     0.000 C
ATOM      5  C5  IDS F   1      -7.539  49.403 169.5390  0.00  0.00     0.000 C
ATOM      6  O5  IDS F   1      -7.645  48.559 170.6370  0.00  0.00     0.000 O
ATOM      7   S  IDS F   1      -7.499  44.380 169.0430  0.00  0.00     0.000 S
ATOM      8   O  IDS F   1      -7.480  44.646 167.6360  0.00  0.00     0.000 OA
ATOM      9   O  IDS F   1      -6.242  43.850 169.4860  0.00  0.00     0.000 OA
ATOM     10   O  IDS F   1      -8.631  43.585 169.4580  0.00  0.00     0.000 OA
ATOM     11   O  IDS F   1      -7.701  45.800 169.7250  0.00  0.00     0.000 O
ATOM     12   O  IDS F   1      -9.440  47.992 167.4880  0.00  0.00     0.000 O
ATOM     14  HD  IDS F   1      -9.503  48.703 166.9980  0.00  0.00     0.000 HD
ATOM     14   O  IDS F   1      -5.971  47.995 168.3820  0.00  0.00     0.000 O
ATOM     16  HD  IDS F   1      -6.034  48.706 167.8920  0.00  0.00     0.000 HD
ATOM     16   O  IDS F   1      -6.229  50.729 171.0200  0.00  0.00     0.000 OA
ATOM     17   O  IDS F   1      -6.139  51.271 169.0010  0.00  0.00     0.000 OA
ATOM     18   C  IDS F   1      -6.579  50.529 169.8640  0.00  0.00     0.000 C
ENDROOT
BRANCH 1 19
ATOM     19  O4  SGN F   2      -8.863  47.053 171.7960  0.00  0.00     0.000 O
BRANCH 19 23
ATOM     20  C1  SGN F   2     -12.143  47.874 174.2380  0.00  0.00     0.000 C
ATOM     21  C2  SGN F   2     -11.150  49.013 174.0740  0.00  0.00     0.000 C
ATOM     22  C3  SGN F   2     -10.327  48.842 172.7890  0.00  0.00     0.000 C
ATOM     23  C4  SGN F   2      -9.634  47.447 172.9110  0.00  0.00     0.000 C
ATOM     24  C5  SGN F   2     -10.729  46.442 173.0400  0.00  0.00     0.000 C
ATOM     25  O5  SGN F   2     -11.451  46.656 174.2100  0.00  0.00     0.000 O
ATOM     26   N  SGN F   2     -11.871  50.302 174.2030  0.00  0.00     0.000 N
ATOM     28  HD  SGN F   2     -11.876  51.052 173.7710  0.00  0.00     0.000 HD
ATOM     28   S  SGN F   2     -12.172  50.870 175.7510  0.00  0.00     0.000 S
ATOM     29   O  SGN F   2     -12.756  49.785 176.5060  0.00  0.00     0.000 OA
ATOM     30   O  SGN F   2     -10.875  51.259 176.2570  0.00  0.00     0.000 OA
ATOM     31   O  SGN F   2     -13.031  51.990 175.6160  0.00  0.00     0.000 OA
ATOM     32   O  SGN F   2      -9.356  49.881 172.7370  0.00  0.00     0.000 O
ATOM     34  HD  SGN F   2      -9.361  50.632 172.3050  0.00  0.00     0.000 HD
ATOM     34   C  SGN F   2     -10.215  45.043 173.1110  0.00  0.00     0.000 C
ATOM     35   O  SGN F   2      -9.313  45.040 174.1650  0.00  0.00     0.000 O
ATOM     36   S  SGN F   2      -8.631  43.827 174.7890  0.00  0.00     0.000 S
ATOM     37   O  SGN F   2      -7.222  44.118 174.7150  0.00  0.00     0.000 OA
ATOM     38   O  SGN F   2      -9.163  43.770 176.1330  0.00  0.00     0.000 OA
ATOM     39   O  SGN F   2      -9.011  42.667 173.9920  0.00  0.00     0.000 OA
BRANCH 20 40
ATOM     40  O4  IDS F   3     -13.127  47.898 173.2390  0.00  0.00     0.000 O
BRANCH 40 44
ATOM     41  C1  IDS F   3     -16.361  47.557 171.9680  0.00  0.00     0.000 C
ATOM     42  C2  IDS F   3     -15.358  48.428 171.2530  0.00  0.00     0.000 C
ATOM     43  C3  IDS F   3     -14.641  49.448 172.2190  0.00  0.00     0.000 C
ATOM     44  C4  IDS F   3     -14.203  48.786 173.5120  0.00  0.00     0.000 C
ATOM     45  C5  IDS F   3     -15.381  48.011 174.1000  0.00  0.00     0.000 C
ATOM     46  O5  IDS F   3     -15.818  47.029 173.1870  0.00  0.00     0.000 O
ATOM     47   O  IDS F   3     -13.194  48.611 168.8530  0.00  0.00     0.000 OA
ATOM     48   O  IDS F   3     -13.452  46.259 168.8530  0.00  0.00     0.000 OA
ATOM     49   O  IDS F   3     -15.333  47.719 168.4900  0.00  0.00     0.000 OA
ATOM     50   O  IDS F   3     -14.395  47.584 170.6130  0.00  0.00     0.000 O
ATOM     51   S  IDS F   3     -14.074  47.530 169.1120  0.00  0.00     0.000 S
ATOM     52   O  IDS F   3     -15.546  50.489 172.5700  0.00  0.00     0.000 O
ATOM     54  HD  IDS F   3     -15.476  49.994 171.8630  0.00  0.00     0.000 HD
ATOM     54   C  IDS F   3     -15.129  47.390 175.4790  0.00  0.00     0.000 C
ATOM     55   O  IDS F   3     -14.829  46.205 175.5970  0.00  0.00     0.000 OA
ATOM     56   O  IDS F   3     -15.210  48.067 176.5120  0.00  0.00     0.000 OA
BRANCH 41 57
ATOM     57  O4  SGN F   4     -17.527  48.298 172.1810  0.00  0.00     0.000 O
BRANCH 57 61
ATOM     58  C1  SGN F   4     -19.721  45.062 173.3890  0.00  0.00     0.000 C
ATOM     59  C2  SGN F   4     -19.674  45.324 171.8750  0.00  0.00     0.000 C
ATOM     60  C3  SGN F   4     -18.542  46.268 171.5090  0.00  0.00     0.000 C
ATOM     61  C4  SGN F   4     -18.666  47.525 172.3680  0.00  0.00     0.000 C
ATOM     62  C5  SGN F   4     -18.764  47.142 173.8570  0.00  0.00     0.000 C
ATOM     63  O5  SGN F   4     -19.834  46.275 174.0780  0.00  0.00     0.000 O
ATOM     64   N  SGN F   4     -19.583  44.077 171.1400  0.00  0.00     0.000 N
ATOM     66  HD  SGN F   4     -19.996  44.509 171.7680  0.00  0.00     0.000 HD
ATOM     66   S  SGN F   4     -20.977  43.311 170.7800  0.00  0.00     0.000 S
ATOM     67   O  SGN F   4     -21.510  42.834 172.0420  0.00  0.00     0.000 OA
ATOM     68   O  SGN F   4     -21.872  44.269 170.1350  0.00  0.00     0.000 OA
ATOM     69   O  SGN F   4     -20.548  42.233 169.9170  0.00  0.00     0.000 OA
ATOM     70   O  SGN F   4     -18.660  46.653 170.1470  0.00  0.00     0.000 O
ATOM     72  HD  SGN F   4     -19.072  47.085 170.7750  0.00  0.00     0.000 HD
ATOM     72   C  SGN F   4     -19.017  48.304 174.7830  0.00  0.00     0.000 C
ATOM     73   O  SGN F   4     -20.235  48.895 174.3920  0.00  0.00     0.000 O
ATOM     74   S  SGN F   4     -21.225  49.632 175.3400  0.00  0.00     0.000 S
ATOM     75   O  SGN F   4     -20.471  50.286 176.3580  0.00  0.00     0.000 OA
ATOM     76   O  SGN F   4     -21.977  50.582 174.5220  0.00  0.00     0.000 OA
ATOM     77   O  SGN F   4     -21.994  48.588 175.8940  0.00  0.00     0.000 OA
BRANCH 58 78
ATOM     78  O4  IDS F   5     -18.588  44.337 173.8050  0.00  0.00     0.000 O
BRANCH 78 82
ATOM     79  C1  IDS F   5     -16.227  42.313 175.3780  0.00  0.00     0.000 C
ATOM     80  C2  IDS F   5     -16.823  41.925 174.0320  0.00  0.00     0.000 C
ATOM     81  C3  IDS F   5     -18.353  41.959 174.0540  0.00  0.00     0.000 C
ATOM     82  C4  IDS F   5     -18.864  43.277 174.6740  0.00  0.00     0.000 C
ATOM     83  C5  IDS F   5     -18.167  43.523 176.0140  0.00  0.00     0.000 C
ATOM     84  O5  IDS F   5     -16.764  43.522 175.8490  0.00  0.00     0.000 O
ATOM     85   O  IDS F   5     -16.434  41.247 176.2710  0.00  0.00     0.000 OA
ATOM     86   O  IDS F   5     -16.394  42.858 173.0810  0.00  0.00     0.000 O
ATOM     87   S  IDS F   5     -16.399  42.715 171.5240  0.00  0.00     0.000 S
ATOM     88   O  IDS F   5     -17.507  41.865 171.1760  0.00  0.00     0.000 OA
ATOM     89   O  IDS F   5     -16.552  44.052 170.9980  0.00  0.00     0.000 OA
ATOM     90   O  IDS F   5     -15.135  42.105 171.2050  0.00  0.00     0.000 OA
ATOM     91   O  IDS F   5     -18.807  40.876 174.8400  0.00  0.00     0.000 O
ATOM     93  HD  IDS F   5     -19.014  41.281 175.5760  0.00  0.00     0.000 HD
ATOM     93   O  IDS F   5     -17.875  45.701 176.9170  0.00  0.00     0.000 OA
ATOM     94   O  IDS F   5     -19.772  44.891 177.1260  0.00  0.00     0.000 OA
ATOM     95   C  IDS F   5     -18.627  44.779 176.7290  0.00  0.00     0.000 C
ENDBRANCH 78 82
ENDBRANCH 58 78
ENDBRANCH 57 61
ENDBRANCH 41 57
ENDBRANCH 40 44
ENDBRANCH 20 40
ENDBRANCH 19 23
ENDBRANCH 1 19
TORSDOF 8
ENDMDL
MODEL 73
REMARK VINA RESULT:      -5.4      2.863      6.260
FFDIST PL LJ 2322 74 36 -1
ROOT
ATOM      1  C1  IDS F   1      -9.243  45.169 173.8210  0.00  0.00     0.000 C
ATOM      2  C2  IDS F   1      -9.104  44.353 172.5250  0.00  0.00     0.000 C
ATOM      3  C3  IDS F   1      -7.947  43.326 172.5720  0.00  0.00     0.000 C
ATOM      4  C4  IDS F   1      -7.772  42.640 173.9470  0.00  0.00     0.000 C
ATOM      5  C5  IDS F   1      -8.014  43.644 175.0790  0.00  0.00     0.000 C
ATOM      6  O5  IDS F   1      -9.237  44.280 174.9060  0.00  0.00     0.000 O
ATOM      7   S  IDS F   1     -10.785  42.984 170.9120  0.00  0.00     0.000 S
ATOM      8   O  IDS F   1      -9.673  42.210 170.4490  0.00  0.00     0.000 OA
ATOM      9   O  IDS F   1     -11.915  42.148 171.1980  0.00  0.00     0.000 OA
ATOM     10   O  IDS F   1     -11.104  44.098 170.0500  0.00  0.00     0.000 OA
ATOM     11   O  IDS F   1     -10.292  43.629 172.2780  0.00  0.00     0.000 O
ATOM     12   O  IDS F   1      -6.730  43.991 172.2430  0.00  0.00     0.000 O
ATOM     14  HD  IDS F   1      -5.934  43.822 172.5410  0.00  0.00     0.000 HD
ATOM     14   O  IDS F   1      -8.722  41.605 174.0230  0.00  0.00     0.000 O
ATOM     16  HD  IDS F   1      -7.926  41.436 174.3200  0.00  0.00     0.000 HD
ATOM     16   O  IDS F   1      -8.727  43.468 177.3430  0.00  0.00     0.000 OA
ATOM     17   O  IDS F   1      -7.058  42.316 176.8290  0.00  0.00     0.000 OA
ATOM     18   C  IDS F   1      -7.926  43.106 176.4920  0.00  0.00     0.000 C
ENDROOT
BRANCH 1 19
ATOM     19  O4  SGN F   2     -10.463  45.827 173.8110  0.00  0.00     0.000 O
BRANCH 19 23
ATOM     20  C1  SGN F   2     -13.844  46.438 171.4460  0.00  0.00     0.000 C
ATOM     21  C2  SGN F   2     -13.717  45.052 172.0570  0.00  0.00     0.000 C
ATOM     22  C3  SGN F   2     -12.810  45.080 173.2960  0.00  0.00     0.000 C
ATOM     23  C4  SGN F   2     -11.442  45.655 172.8080  0.00  0.00     0.000 C
ATOM     24  C5  SGN F   2     -11.726  47.015 172.2620  0.00  0.00     0.000 C
ATOM     25  O5  SGN F   2     -12.564  46.928 171.1550  0.00  0.00     0.000 O
ATOM     26   N  SGN F   2     -15.074  44.495 172.2720  0.00  0.00     0.000 N
ATOM     28  HD  SGN F   2     -15.474  44.078 172.9170  0.00  0.00     0.000 HD
ATOM     28   S  SGN F   2     -15.835  43.779 170.9620  0.00  0.00     0.000 S
ATOM     29   O  SGN F   2     -15.740  44.697 169.8490  0.00  0.00     0.000 OA
ATOM     30   O  SGN F   2     -15.097  42.557 170.7330  0.00  0.00     0.000 OA
ATOM     31   O  SGN F   2     -17.169  43.511 171.3590  0.00  0.00     0.000 OA
ATOM     32   O  SGN F   2     -12.655  43.747 173.7680  0.00  0.00     0.000 O
ATOM     34  HD  SGN F   2     -13.055  43.330 174.4130  0.00  0.00     0.000 HD
ATOM     34   C  SGN F   2     -10.491  47.715 171.8030  0.00  0.00     0.000 C
ATOM     35   O  SGN F   2      -9.897  46.849 170.8960  0.00  0.00     0.000 O
ATOM     36   S  SGN F   2      -8.706  47.142 169.9900  0.00  0.00     0.000 S
ATOM     37   O  SGN F   2      -7.753  46.103 170.2890  0.00  0.00     0.000 OA
ATOM     38   O  SGN F   2      -9.252  47.089 168.6510  0.00  0.00     0.000 OA
ATOM     39   O  SGN F   2      -8.220  48.471 170.3380  0.00  0.00     0.000 OA
BRANCH 20 40
ATOM     40  O4  IDS F   3     -14.521  47.320 172.3010  0.00  0.00     0.000 O
BRANCH 40 44
ATOM     41  C1  IDS F   3     -16.882  49.814 172.9280  0.00  0.00     0.000 C
ATOM     42  C2  IDS F   3     -16.863  49.112 171.5940  0.00  0.00     0.000 C
ATOM     43  C3  IDS F   3     -15.427  49.074 170.9460  0.00  0.00     0.000 C
ATOM     44  C4  IDS F   3     -14.363  48.690 171.9570  0.00  0.00     0.000 C
ATOM     45  C5  IDS F   3     -14.521  49.561 173.2030  0.00  0.00     0.000 C
ATOM     46  O5  IDS F   3     -15.801  49.375 173.7640  0.00  0.00     0.000 O
ATOM     47   O  IDS F   3     -18.142  46.747 169.7900  0.00  0.00     0.000 OA
ATOM     48   O  IDS F   3     -19.019  46.050 171.8740  0.00  0.00     0.000 OA
ATOM     49   O  IDS F   3     -19.509  48.234 170.9840  0.00  0.00     0.000 OA
ATOM     50   O  IDS F   3     -17.368  47.784 171.7710  0.00  0.00     0.000 O
ATOM     51   S  IDS F   3     -18.586  47.162 171.0720  0.00  0.00     0.000 S
ATOM     52   O  IDS F   3     -15.089  50.368 170.4570  0.00  0.00     0.000 O
ATOM     54  HD  IDS F   3     -15.848  49.962 170.5530  0.00  0.00     0.000 HD
ATOM     54   C  IDS F   3     -13.434  49.378 174.2680  0.00  0.00     0.000 C
ATOM     55   O  IDS F   3     -13.622  48.666 175.2520  0.00  0.00     0.000 OA
ATOM     56   O  IDS F   3     -12.332  49.933 174.1630  0.00  0.00     0.000 OA
BRANCH 41 57
ATOM     57  O4  SGN F   4     -16.856  51.195 172.7080  0.00  0.00     0.000 O
BRANCH 57 61
ATOM     58  C1  SGN F   4     -18.051  54.415 174.9330  0.00  0.00     0.000 C
ATOM     59  C2  SGN F   4     -16.539  54.144 174.8890  0.00  0.00     0.000 C
ATOM     60  C3  SGN F   4     -16.176  53.210 173.7470  0.00  0.00     0.000 C
ATOM     61  C4  SGN F   4     -17.042  51.957 173.8550  0.00  0.00     0.000 C
ATOM     62  C5  SGN F   4     -18.529  52.347 173.9540  0.00  0.00     0.000 C
ATOM     63  O5  SGN F   4     -18.748  53.204 175.0320  0.00  0.00     0.000 O
ATOM     64   N  SGN F   4     -15.797  55.387 174.8130  0.00  0.00     0.000 N
ATOM     66  HD  SGN F   4     -16.428  54.955 175.2190  0.00  0.00     0.000 HD
ATOM     66   S  SGN F   4     -15.436  56.137 176.2160  0.00  0.00     0.000 S
ATOM     67   O  SGN F   4     -16.697  56.616 176.7500  0.00  0.00     0.000 OA
ATOM     68   O  SGN F   4     -14.799  55.165 177.1020  0.00  0.00     0.000 OA
ATOM     69   O  SGN F   4     -14.565  57.214 175.8010  0.00  0.00     0.000 OA
ATOM     70   O  SGN F   4     -14.816  52.816 173.8650  0.00  0.00     0.000 O
ATOM     72  HD  SGN F   4     -15.447  52.383 174.2710  0.00  0.00     0.000 HD
ATOM     72   C  SGN F   4     -19.462  51.188 174.1910  0.00  0.00     0.000 C
ATOM     73   O  SGN F   4     -19.078  50.582 175.4040  0.00  0.00     0.000 O
ATOM     74   S  SGN F   4     -20.033  49.840 176.3830  0.00  0.00     0.000 S
ATOM     75   O  SGN F   4     -21.053  49.200 175.6200  0.00  0.00     0.000 OA
ATOM     76   O  SGN F   4     -19.224  48.877 177.1280  0.00  0.00     0.000 OA
ATOM     77   O  SGN F   4     -20.584  50.879 177.1620  0.00  0.00     0.000 OA
BRANCH 58 78
ATOM     78  O4  IDS F   5     -18.459  55.154 173.8070  0.00  0.00     0.000 O
BRANCH 78 82
ATOM     79  C1  IDS F   5     -20.121  57.160 171.4910  0.00  0.00     0.000 C
ATOM     80  C2  IDS F   5     -18.703  57.486 171.9400  0.00  0.00     0.000 C
ATOM     81  C3  IDS F   5     -18.582  57.529 173.4650  0.00  0.00     0.000 C
ATOM     82  C4  IDS F   5     -19.232  56.282 174.1020  0.00  0.00     0.000 C
ATOM     83  C5  IDS F   5     -20.644  56.092 173.5440  0.00  0.00     0.000 C
ATOM     84  O5  IDS F   5     -20.613  56.012 172.1340  0.00  0.00     0.000 O
ATOM     85   O  IDS F   5     -20.922  58.292 171.7190  0.00  0.00     0.000 OA
ATOM     86   O  IDS F   5     -17.856  56.472 171.4780  0.00  0.00     0.000 O
ATOM     87   S  IDS F   5     -16.299  56.511 171.3340  0.00  0.00     0.000 S
ATOM     88   O  IDS F   5     -15.797  57.389 172.3570  0.00  0.00     0.000 OA
ATOM     89   O  IDS F   5     -15.845  55.150 171.5120  0.00  0.00     0.000 OA
ATOM     90   O  IDS F   5     -16.064  57.035 170.0140  0.00  0.00     0.000 OA
ATOM     91   O  IDS F   5     -19.254  58.683 173.9280  0.00  0.00     0.000 O
ATOM     93  HD  IDS F   5     -19.991  58.338 174.2230  0.00  0.00     0.000 HD
ATOM     93   O  IDS F   5     -21.704  53.967 173.4560  0.00  0.00     0.000 OA
ATOM     94   O  IDS F   5     -21.682  54.882 175.3170  0.00  0.00     0.000 OA
ATOM     95   C  IDS F   5     -21.389  54.910 174.1370  0.00  0.00     0.000 C
ENDBRANCH 78 82
ENDBRANCH 58 78
ENDBRANCH 57 61
ENDBRANCH 41 57
ENDBRANCH 40 44
ENDBRANCH 20 40
ENDBRANCH 19 23
ENDBRANCH 1 19
TORSDOF 8
ENDMDL
MODEL 74
REMARK VINA RESULT:      -5.4      3.899     11.836
FFDIST PL LJ 2322 74 36 -1
ROOT
ATOM      1  C1  IDS F   1     -20.657  48.713 173.1650  0.00  0.00     0.000 C
ATOM      2  C2  IDS F   1     -21.893  48.750 172.2510  0.00  0.00     0.000 C
ATOM      3  C3  IDS F   1     -23.047  49.610 172.8210  0.00  0.00     0.000 C
ATOM      4  C4  IDS F   1     -22.575  50.893 173.5440  0.00  0.00     0.000 C
ATOM      5  C5  IDS F   1     -21.298  50.615 174.3450  0.00  0.00     0.000 C
ATOM      6  O5  IDS F   1     -20.337  50.029 173.5300  0.00  0.00     0.000 O
ATOM      7   S  IDS F   1     -22.341  49.175 169.6210  0.00  0.00     0.000 S
ATOM      8   O  IDS F   1     -23.683  49.560 169.9350  0.00  0.00     0.000 OA
ATOM      9   O  IDS F   1     -21.746  50.085 168.6850  0.00  0.00     0.000 OA
ATOM     10   O  IDS F   1     -22.222  47.791 169.2240  0.00  0.00     0.000 OA
ATOM     11   O  IDS F   1     -21.550  49.295 170.9930  0.00  0.00     0.000 O
ATOM     12   O  IDS F   1     -23.795  48.822 173.7430  0.00  0.00     0.000 O
ATOM     14  HD  IDS F   1     -24.205  49.086 174.4580  0.00  0.00     0.000 HD
ATOM     14   O  IDS F   1     -22.314  51.860 172.5570  0.00  0.00     0.000 O
ATOM     16  HD  IDS F   1     -22.724  52.125 173.2730  0.00  0.00     0.000 HD
ATOM     16   O  IDS F   1     -19.472  51.947 175.0900  0.00  0.00     0.000 OA
ATOM     17   O  IDS F   1     -21.369  52.608 175.6710  0.00  0.00     0.000 OA
ATOM     18   C  IDS F   1     -20.685  51.793 175.0740  0.00  0.00     0.000 C
ENDROOT
BRANCH 1 19
ATOM     19  O4  SGN F   2     -19.586  48.192 172.4550  0.00  0.00     0.000 O
BRANCH 19 23
ATOM     20  C1  SGN F   2     -17.418  44.647 172.1040  0.00  0.00     0.000 C
ATOM     21  C2  SGN F   2     -18.617  44.773 171.1770  0.00  0.00     0.000 C
ATOM     22  C3  SGN F   2     -18.998  46.246 170.9720  0.00  0.00     0.000 C
ATOM     23  C4  SGN F   2     -19.273  46.817 172.4010  0.00  0.00     0.000 C
ATOM     24  C5  SGN F   2     -18.009  46.644 173.1750  0.00  0.00     0.000 C
ATOM     25  O5  SGN F   2     -17.704  45.293 173.3130  0.00  0.00     0.000 O
ATOM     26   N  SGN F   2     -18.349  44.004 169.9380  0.00  0.00     0.000 N
ATOM     28  HD  SGN F   2     -18.447  44.149 169.0900  0.00  0.00     0.000 HD
ATOM     28   S  SGN F   2     -18.631  42.353 169.9740  0.00  0.00     0.000 S
ATOM     29   O  SGN F   2     -17.977  41.826 171.1510  0.00  0.00     0.000 OA
ATOM     30   O  SGN F   2     -20.070  42.227 170.0400  0.00  0.00     0.000 OA
ATOM     31   O  SGN F   2     -18.121  41.824 168.7620  0.00  0.00     0.000 OA
ATOM     32   O  SGN F   2     -20.176  46.297 170.1760  0.00  0.00     0.000 O
ATOM     34  HD  SGN F   2     -20.274  46.442 169.3280  0.00  0.00     0.000 HD
ATOM     34   C  SGN F   2     -18.105  47.199 174.5560  0.00  0.00     0.000 C
ATOM     35   O  SGN F   2     -19.209  46.577 175.1220  0.00  0.00     0.000 O
ATOM     36   S  SGN F   2     -19.654  46.642 176.5790  0.00  0.00     0.000 S
ATOM     37   O  SGN F   2     -21.020  47.099 176.5270  0.00  0.00     0.000 OA
ATOM     38   O  SGN F   2     -19.492  45.288 177.0640  0.00  0.00     0.000 OA
ATOM     39   O  SGN F   2     -18.769  47.582 177.2550  0.00  0.00     0.000 OA
BRANCH 20 40
ATOM     40  O4  IDS F   3     -16.259  45.186 171.5260  0.00  0.00     0.000 O
BRANCH 40 44
ATOM     41  C1  IDS F   3     -12.915  46.163 171.7580  0.00  0.00     0.000 C
ATOM     42  C2  IDS F   3     -13.547  45.952 170.4050  0.00  0.00     0.000 C
ATOM     43  C3  IDS F   3     -14.300  44.571 170.2940  0.00  0.00     0.000 C
ATOM     44  C4  IDS F   3     -15.152  44.295 171.5180  0.00  0.00     0.000 C
ATOM     45  C5  IDS F   3     -14.305  44.505 172.7740  0.00  0.00     0.000 C
ATOM     46  O5  IDS F   3     -13.826  45.830 172.8160  0.00  0.00     0.000 O
ATOM     47   O  IDS F   3     -14.981  47.357 167.8660  0.00  0.00     0.000 OA
ATOM     48   O  IDS F   3     -15.131  49.191 169.3540  0.00  0.00     0.000 OA
ATOM     49   O  IDS F   3     -13.000  48.228 168.7730  0.00  0.00     0.000 OA
ATOM     50   O  IDS F   3     -14.447  47.035 170.1480  0.00  0.00     0.000 O
ATOM     51   S  IDS F   3     -14.388  48.020 168.9710  0.00  0.00     0.000 S
ATOM     52   O  IDS F   3     -13.349  43.515 170.2000  0.00  0.00     0.000 O
ATOM     54  HD  IDS F   3     -13.323  44.345 169.9530  0.00  0.00     0.000 HD
ATOM     54   C  IDS F   3     -14.994  44.138 174.0930  0.00  0.00     0.000 C
ATOM     55   O  IDS F   3     -15.509  44.999 174.8020  0.00  0.00     0.000 OA
ATOM     56   O  IDS F   3     -15.061  42.963 174.4770  0.00  0.00     0.000 OA
BRANCH 41 57
ATOM     57  O4  SGN F   4     -11.732  45.421 171.8210  0.00  0.00     0.000 O
BRANCH 57 61
ATOM     58  C1  SGN F   4     -10.593  46.991 175.4250  0.00  0.00     0.000 C
ATOM     59  C2  SGN F   4     -10.176  47.784 174.1770  0.00  0.00     0.000 C
ATOM     60  C3  SGN F   4     -10.969  47.355 172.9550  0.00  0.00     0.000 C
ATOM     61  C4  SGN F   4     -10.852  45.839 172.8120  0.00  0.00     0.000 C
ATOM     62  C5  SGN F   4     -11.235  45.150 174.1360  0.00  0.00     0.000 C
ATOM     63  O5  SGN F   4     -10.447  45.619 175.1870  0.00  0.00     0.000 O
ATOM     64   N  SGN F   4     -10.295  49.210 174.4120  0.00  0.00     0.000 N
ATOM     66  HD  SGN F   4      -9.996  48.458 174.7180  0.00  0.00     0.000 HD
ATOM     66   S  SGN F   4      -9.025  49.970 175.0960  0.00  0.00     0.000 S
ATOM     67   O  SGN F   4      -8.953  49.484 176.4610  0.00  0.00     0.000 OA
ATOM     68   O  SGN F   4      -7.825  49.634 174.3310  0.00  0.00     0.000 OA
ATOM     69   O  SGN F   4      -9.395  51.365 175.0230  0.00  0.00     0.000 OA
ATOM     70   O  SGN F   4     -10.416  47.950 171.7910  0.00  0.00     0.000 O
ATOM     72  HD  SGN F   4     -10.117  47.198 172.0970  0.00  0.00     0.000 HD
ATOM     72   C  SGN F   4     -11.031  43.657 174.1420  0.00  0.00     0.000 C
ATOM     73   O  SGN F   4      -9.665  43.419 173.8930  0.00  0.00     0.000 O
ATOM     74   S  SGN F   4      -8.851  42.203 174.4240  0.00  0.00     0.000 S
ATOM     75   O  SGN F   4      -9.717  41.072 174.4850  0.00  0.00     0.000 OA
ATOM     76   O  SGN F   4      -7.741  41.990 173.4970  0.00  0.00     0.000 OA
ATOM     77   O  SGN F   4      -8.470  42.599 175.7230  0.00  0.00     0.000 OA
BRANCH 58 78
ATOM     78  O4  IDS F   5     -11.911  47.310 175.8030  0.00  0.00     0.000 O
BRANCH 78 82
ATOM     79  C1  IDS F   5     -14.963  47.807 177.4120  0.00  0.00     0.000 C
ATOM     80  C2  IDS F   5     -14.115  48.985 176.9540  0.00  0.00     0.000 C
ATOM     81  C3  IDS F   5     -12.672  48.880 177.4550  0.00  0.00     0.000 C
ATOM     82  C4  IDS F   5     -12.097  47.474 177.1790  0.00  0.00     0.000 C
ATOM     83  C5  IDS F   5     -13.067  46.408 177.6920  0.00  0.00     0.000 C
ATOM     84  O5  IDS F   5     -14.344  46.582 177.1150  0.00  0.00     0.000 O
ATOM     85   O  IDS F   5     -15.221  47.962 178.7850  0.00  0.00     0.000 OA
ATOM     86   O  IDS F   5     -14.076  48.976 175.5540  0.00  0.00     0.000 O
ATOM     87   S  IDS F   5     -13.679  50.147 174.5960  0.00  0.00     0.000 S
ATOM     88   O  IDS F   5     -12.710  50.955 175.2880  0.00  0.00     0.000 OA
ATOM     89   O  IDS F   5     -13.126  49.527 173.4130  0.00  0.00     0.000 OA
ATOM     90   O  IDS F   5     -14.904  50.863 174.3600  0.00  0.00     0.000 OA
ATOM     91   O  IDS F   5     -12.673  49.110 178.8500  0.00  0.00     0.000 O
ATOM     93  HD  IDS F   5     -12.596  48.302 179.1500  0.00  0.00     0.000 HD
ATOM     93   O  IDS F   5     -13.153  44.218 176.7770  0.00  0.00     0.000 OA
ATOM     94   O  IDS F   5     -11.584  44.582 178.0810  0.00  0.00     0.000 OA
ATOM     95   C  IDS F   5     -12.577  44.985 177.5050  0.00  0.00     0.000 C
ENDBRANCH 78 82
ENDBRANCH 58 78
ENDBRANCH 57 61
ENDBRANCH 41 57
ENDBRANCH 40 44
ENDBRANCH 20 40
ENDBRANCH 19 23
ENDBRANCH 1 19
TORSDOF 8
ENDMDL
MODEL 75
REMARK VINA RESULT:      -5.4      3.927     13.318
FFDIST PL LJ 2322 74 36 -1
ROOT
ATOM      1  C1  IDS F   1     -21.449  49.215 173.2540  0.00  0.00     0.000 C
ATOM      2  C2  IDS F   1     -22.461  49.353 172.1050  0.00  0.00     0.000 C
ATOM      3  C3  IDS F   1     -23.684  50.228 172.4740  0.00  0.00     0.000 C
ATOM      4  C4  IDS F   1     -23.339  51.448 173.3590  0.00  0.00     0.000 C
ATOM      5  C5  IDS F   1     -22.269  51.073 174.3900  0.00  0.00     0.000 C
ATOM      6  O5  IDS F   1     -21.175  50.494 173.7590  0.00  0.00     0.000 O
ATOM      7   S  IDS F   1     -22.330  49.941 169.4720  0.00  0.00     0.000 S
ATOM      8   O  IDS F   1     -23.697  50.364 169.5210  0.00  0.00     0.000 OA
ATOM      9   O  IDS F   1     -21.525  50.876 168.7400  0.00  0.00     0.000 OA
ATOM     10   O  IDS F   1     -22.170  48.577 169.0230  0.00  0.00     0.000 OA
ATOM     11   O  IDS F   1     -21.844  49.952 170.9840  0.00  0.00     0.000 O
ATOM     12   O  IDS F   1     -24.633  49.422 173.1670  0.00  0.00     0.000 O
ATOM     14  HD  IDS F   1     -25.177  49.663 173.7960  0.00  0.00     0.000 HD
ATOM     14   O  IDS F   1     -22.847  52.457 172.5120  0.00  0.00     0.000 O
ATOM     16  HD  IDS F   1     -23.391  52.698 173.1400  0.00  0.00     0.000 HD
ATOM     16   O  IDS F   1     -20.603  52.285 175.5840  0.00  0.00     0.000 OA
ATOM     17   O  IDS F   1     -22.561  52.992 175.7940  0.00  0.00     0.000 OA
ATOM     18   C  IDS F   1     -21.790  52.183 175.3040  0.00  0.00     0.000 C
ENDROOT
BRANCH 1 19
ATOM     19  O4  SGN F   2     -20.267  48.689 172.7520  0.00  0.00     0.000 O
BRANCH 19 23
ATOM     20  C1  SGN F   2     -18.142  45.103 172.6110  0.00  0.00     0.000 C
ATOM     21  C2  SGN F   2     -19.202  45.277 171.5340  0.00  0.00     0.000 C
ATOM     22  C3  SGN F   2     -19.522  46.763 171.3160  0.00  0.00     0.000 C
ATOM     23  C4  SGN F   2     -19.977  47.308 172.7070  0.00  0.00     0.000 C
ATOM     24  C5  SGN F   2     -18.833  47.090 173.6410  0.00  0.00     0.000 C
ATOM     25  O5  SGN F   2     -18.577  45.730 173.7860  0.00  0.00     0.000 O
ATOM     26   N  SGN F   2     -18.784  44.529 170.3240  0.00  0.00     0.000 N
ATOM     28  HD  SGN F   2     -18.763  44.694 169.4740  0.00  0.00     0.000 HD
ATOM     28   S  SGN F   2     -19.101  42.885 170.2810  0.00  0.00     0.000 S
ATOM     29   O  SGN F   2     -18.623  42.318 171.5220  0.00  0.00     0.000 OA
ATOM     30   O  SGN F   2     -20.537  42.791 170.1490  0.00  0.00     0.000 OA
ATOM     31   O  SGN F   2     -18.441  42.370 169.1370  0.00  0.00     0.000 OA
ATOM     32   O  SGN F   2     -20.580  46.858 170.3690  0.00  0.00     0.000 O
ATOM     34  HD  SGN F   2     -20.559  47.023 169.5190  0.00  0.00     0.000 HD
ATOM     34   C  SGN F   2     -19.105  47.617 175.0100  0.00  0.00     0.000 C
ATOM     35   O  SGN F   2     -20.287  47.009 175.4060  0.00  0.00     0.000 O
ATOM     36   S  SGN F   2     -20.925  47.052 176.7910  0.00  0.00     0.000 S
ATOM     37   O  SGN F   2     -22.261  47.542 176.5660  0.00  0.00     0.000 OA
ATOM     38   O  SGN F   2     -20.856  45.685 177.2590  0.00  0.00     0.000 OA
ATOM     39   O  SGN F   2     -20.121  47.957 177.6030  0.00  0.00     0.000 OA
BRANCH 20 40
ATOM     40  O4  IDS F   3     -16.905  45.628 172.2080  0.00  0.00     0.000 O
BRANCH 40 44
ATOM     41  C1  IDS F   3     -13.456  46.168 172.2670  0.00  0.00     0.000 C
ATOM     42  C2  IDS F   3     -14.216  46.290 170.9700  0.00  0.00     0.000 C
ATOM     43  C3  IDS F   3     -15.146  45.048 170.6910  0.00  0.00     0.000 C
ATOM     44  C4  IDS F   3     -15.924  44.638 171.9270  0.00  0.00     0.000 C
ATOM     45  C5  IDS F   3     -14.960  44.510 173.1050  0.00  0.00     0.000 C
ATOM     46  O5  IDS F   3     -14.314  45.742 173.3360  0.00  0.00     0.000 O
ATOM     47   O  IDS F   3     -15.660  48.303 168.8860  0.00  0.00     0.000 OA
ATOM     48   O  IDS F   3     -15.454  49.824 170.6870  0.00  0.00     0.000 OA
ATOM     49   O  IDS F   3     -13.518  48.761 169.7270  0.00  0.00     0.000 OA
ATOM     50   O  IDS F   3     -14.989  47.495 171.0060  0.00  0.00     0.000 O
ATOM     51   S  IDS F   3     -14.900  48.673 170.0250  0.00  0.00     0.000 S
ATOM     52   O  IDS F   3     -14.348  43.930 170.3120  0.00  0.00     0.000 O
ATOM     54  HD  IDS F   3     -14.237  44.784 170.2160  0.00  0.00     0.000 HD
ATOM     54   C  IDS F   3     -15.581  43.976 174.4010  0.00  0.00     0.000 C
ATOM     55   O  IDS F   3     -15.924  44.738 175.3020  0.00  0.00     0.000 OA
ATOM     56   O  IDS F   3     -15.766  42.764 174.5720  0.00  0.00     0.000 OA
BRANCH 41 57
ATOM     57  O4  SGN F   4     -12.376  45.302 172.0740  0.00  0.00     0.000 O
BRANCH 57 61
ATOM     58  C1  SGN F   4      -8.551  46.516 172.8750  0.00  0.00     0.000 C
ATOM     59  C2  SGN F   4      -8.880  45.051 173.2010  0.00  0.00     0.000 C
ATOM     60  C3  SGN F   4     -10.157  44.602 172.5110  0.00  0.00     0.000 C
ATOM     61  C4  SGN F   4     -11.266  45.594 172.8570  0.00  0.00     0.000 C
ATOM     62  C5  SGN F   4     -10.807  47.032 172.5470  0.00  0.00     0.000 C
ATOM     63  O5  SGN F   4      -9.630  47.336 173.2300  0.00  0.00     0.000 O
ATOM     64   N  SGN F   4      -7.765  44.187 172.8650  0.00  0.00     0.000 N
ATOM     66  HD  SGN F   4      -8.011  44.915 173.2650  0.00  0.00     0.000 HD
ATOM     66   S  SGN F   4      -6.602  43.985 173.9900  0.00  0.00     0.000 S
ATOM     67   O  SGN F   4      -5.922  45.262 174.0990  0.00  0.00     0.000 OA
ATOM     68   O  SGN F   4      -7.243  43.598 175.2450  0.00  0.00     0.000 OA
ATOM     69   O  SGN F   4      -5.763  42.957 173.4170  0.00  0.00     0.000 OA
ATOM     70   O  SGN F   4     -10.542  43.325 172.9990  0.00  0.00     0.000 O
ATOM     72  HD  SGN F   4     -10.788  44.053 173.3990  0.00  0.00     0.000 HD
ATOM     72   C  SGN F   4     -11.781  48.101 172.9710  0.00  0.00     0.000 C
ATOM     73   O  SGN F   4     -11.959  47.978 174.3640  0.00  0.00     0.000 O
ATOM     74   S  SGN F   4     -12.290  49.147 175.3360  0.00  0.00     0.000 S
ATOM     75   O  SGN F   4     -13.109  50.088 174.6470  0.00  0.00     0.000 OA
ATOM     76   O  SGN F   4     -12.978  48.567 176.4880  0.00  0.00     0.000 OA
ATOM     77   O  SGN F   4     -11.029  49.710 175.6210  0.00  0.00     0.000 OA
BRANCH 58 78
ATOM     78  O4  IDS F   5      -8.218  46.663 171.5160  0.00  0.00     0.000 O
BRANCH 78 82
ATOM     79  C1  IDS F   5      -7.063  47.661 168.3820  0.00  0.00     0.000 C
ATOM     80  C2  IDS F   5      -6.494  46.430 169.0740  0.00  0.00     0.000 C
ATOM     81  C3  IDS F   5      -6.041  46.737 170.5030  0.00  0.00     0.000 C
ATOM     82  C4  IDS F   5      -7.133  47.511 171.2720  0.00  0.00     0.000 C
ATOM     83  C5  IDS F   5      -7.599  48.709 170.4420  0.00  0.00     0.000 C
ATOM     84  O5  IDS F   5      -8.043  48.287 169.1690  0.00  0.00     0.000 O
ATOM     85   O  IDS F   5      -5.994  48.518 168.0680  0.00  0.00     0.000 OA
ATOM     86   O  IDS F   5      -7.507  45.467 169.1520  0.00  0.00     0.000 O
ATOM     87   S  IDS F   5      -7.357  43.932 169.4120  0.00  0.00     0.000 S
ATOM     88   O  IDS F   5      -6.196  43.751 170.2430  0.00  0.00     0.000 OA
ATOM     89   O  IDS F   5      -8.572  43.516 170.0750  0.00  0.00     0.000 OA
ATOM     90   O  IDS F   5      -7.178  43.352 168.1070  0.00  0.00     0.000 OA
ATOM     91   O  IDS F   5      -4.876  47.534 170.4340  0.00  0.00     0.000 O
ATOM     93  HD  IDS F   5      -5.201  48.317 170.6110  0.00  0.00     0.000 HD
ATOM     93   O  IDS F   5      -9.764  49.658 170.6790  0.00  0.00     0.000 OA
ATOM     94   O  IDS F   5      -8.395  50.171 172.1490  0.00  0.00     0.000 OA
ATOM     95   C  IDS F   5      -8.649  49.564 171.1260  0.00  0.00     0.000 C
ENDBRANCH 78 82
ENDBRANCH 58 78
ENDBRANCH 57 61
ENDBRANCH 41 57
ENDBRANCH 40 44
ENDBRANCH 20 40
ENDBRANCH 19 23
ENDBRANCH 1 19
TORSDOF 8
ENDMDL
MODEL 76
REMARK VINA RESULT:      -5.4      4.208      6.514
FFDIST PL LJ 2322 74 36 -1
ROOT
ATOM      1  C1  IDS F   1     -16.641  44.344 173.8170  0.00  0.00     0.000 C
ATOM      2  C2  IDS F   1     -17.511  43.566 172.8160  0.00  0.00     0.000 C
ATOM      3  C3  IDS F   1     -17.415  42.031 172.9910  0.00  0.00     0.000 C
ATOM      4  C4  IDS F   1     -17.324  41.572 174.4650  0.00  0.00     0.000 C
ATOM      5  C5  IDS F   1     -16.447  42.537 175.2710  0.00  0.00     0.000 C
ATOM      6  O5  IDS F   1     -16.890  43.843 175.1030  0.00  0.00     0.000 O
ATOM      7   S  IDS F   1     -20.068  43.710 171.9550  0.00  0.00     0.000 S
ATOM      8   O  IDS F   1     -19.995  42.330 171.5810  0.00  0.00     0.000 OA
ATOM      9   O  IDS F   1     -21.293  43.996 172.6430  0.00  0.00     0.000 OA
ATOM     10   O  IDS F   1     -19.805  44.613 170.8590  0.00  0.00     0.000 OA
ATOM     11   O  IDS F   1     -18.870  43.919 172.9770  0.00  0.00     0.000 O
ATOM     12   O  IDS F   1     -16.261  41.561 172.3010  0.00  0.00     0.000 O
ATOM     14  HD  IDS F   1     -15.749  40.895 172.5110  0.00  0.00     0.000 HD
ATOM     14   O  IDS F   1     -18.630  41.571 174.9870  0.00  0.00     0.000 O
ATOM     16  HD  IDS F   1     -18.118  40.905 175.1980  0.00  0.00     0.000 HD
ATOM     16   O  IDS F   1     -16.320  43.157 177.5660  0.00  0.00     0.000 OA
ATOM     17   O  IDS F   1     -16.147  41.110 177.1710  0.00  0.00     0.000 OA
ATOM     18   C  IDS F   1     -16.301  42.245 176.7500  0.00  0.00     0.000 C
ENDROOT
BRANCH 1 19
ATOM     19  O4  SGN F   2     -17.015  45.680 173.7960  0.00  0.00     0.000 O
BRANCH 19 23
ATOM     20  C1  SGN F   2     -16.935  49.175 176.0690  0.00  0.00     0.000 C
ATOM     21  C2  SGN F   2     -15.634  48.389 176.0340  0.00  0.00     0.000 C
ATOM     22  C3  SGN F   2     -15.574  47.483 174.7960  0.00  0.00     0.000 C
ATOM     23  C4  SGN F   2     -16.835  46.564 174.8810  0.00  0.00     0.000 C
ATOM     24  C5  SGN F   2     -18.019  47.472 174.8820  0.00  0.00     0.000 C
ATOM     25  O5  SGN F   2     -18.011  48.280 176.0150  0.00  0.00     0.000 O
ATOM     26   N  SGN F   2     -14.499  49.331 176.1910  0.00  0.00     0.000 N
ATOM     28  HD  SGN F   2     -13.733  49.444 175.8030  0.00  0.00     0.000 HD
ATOM     28   S  SGN F   2     -14.096  49.806 177.7470  0.00  0.00     0.000 S
ATOM     29   O  SGN F   2     -15.314  50.231 178.4000  0.00  0.00     0.000 OA
ATOM     30   O  SGN F   2     -13.527  48.626 178.3560  0.00  0.00     0.000 OA
ATOM     31   O  SGN F   2     -13.134  50.840 177.6230  0.00  0.00     0.000 OA
ATOM     32   O  SGN F   2     -14.383  46.708 174.8650  0.00  0.00     0.000 O
ATOM     34  HD  SGN F   2     -13.617  46.821 174.4770  0.00  0.00     0.000 HD
ATOM     34   C  SGN F   2     -19.311  46.726 174.9050  0.00  0.00     0.000 C
ATOM     35   O  SGN F   2     -19.230  45.893 176.0120  0.00  0.00     0.000 O
ATOM     36   S  SGN F   2     -20.348  45.044 176.6070  0.00  0.00     0.000 S
ATOM     37   O  SGN F   2     -19.816  43.705 176.6390  0.00  0.00     0.000 OA
ATOM     38   O  SGN F   2     -20.587  45.627 177.9090  0.00  0.00     0.000 OA
ATOM     39   O  SGN F   2     -21.500  45.172 175.7230  0.00  0.00     0.000 OA
BRANCH 20 40
ATOM     40  O4  IDS F   3     -17.012  50.094 175.0130  0.00  0.00     0.000 O
BRANCH 40 44
ATOM     41  C1  IDS F   3     -17.485  53.193 173.4750  0.00  0.00     0.000 C
ATOM     42  C2  IDS F   3     -17.214  53.120 174.9570  0.00  0.00     0.000 C
ATOM     43  C3  IDS F   3     -18.149  52.088 175.6960  0.00  0.00     0.000 C
ATOM     44  C4  IDS F   3     -18.254  50.780 174.9350  0.00  0.00     0.000 C
ATOM     45  C5  IDS F   3     -18.596  51.077 173.4750  0.00  0.00     0.000 C
ATOM     46  O5  IDS F   3     -17.592  51.883 172.9000  0.00  0.00     0.000 O
ATOM     47   O  IDS F   3     -14.977  53.324 177.2880  0.00  0.00     0.000 OA
ATOM     48   O  IDS F   3     -13.492  53.168 175.4520  0.00  0.00     0.000 OA
ATOM     49   O  IDS F   3     -15.114  54.943 175.5960  0.00  0.00     0.000 OA
ATOM     50   O  IDS F   3     -15.838  52.778 175.1530  0.00  0.00     0.000 O
ATOM     51   S  IDS F   3     -14.785  53.601 175.9100  0.00  0.00     0.000 S
ATOM     52   O  IDS F   3     -19.465  52.621 175.7930  0.00  0.00     0.000 O
ATOM     54  HD  IDS F   3     -18.686  52.998 175.7660  0.00  0.00     0.000 HD
ATOM     54   C  IDS F   3     -18.863  49.844 172.6050  0.00  0.00     0.000 C
ATOM     55   O  IDS F   3     -17.991  49.383 171.8720  0.00  0.00     0.000 OA
ATOM     56   O  IDS F   3     -19.960  49.271 172.6220  0.00  0.00     0.000 OA
BRANCH 41 57
ATOM     57  O4  SGN F   4     -18.634  53.962 173.2660  0.00  0.00     0.000 O
BRANCH 57 61
ATOM     58  C1  SGN F   4     -19.952  56.556 170.3890  0.00  0.00     0.000 C
ATOM     59  C2  SGN F   4     -20.263  55.069 170.1570  0.00  0.00     0.000 C
ATOM     60  C3  SGN F   4     -20.101  54.262 171.4330  0.00  0.00     0.000 C
ATOM     61  C4  SGN F   4     -18.711  54.537 172.0040  0.00  0.00     0.000 C
ATOM     62  C5  SGN F   4     -18.485  56.056 172.1390  0.00  0.00     0.000 C
ATOM     63  O5  SGN F   4     -18.660  56.695 170.9120  0.00  0.00     0.000 O
ATOM     64   N  SGN F   4     -21.588  54.905 169.5900  0.00  0.00     0.000 N
ATOM     66  HD  SGN F   4     -20.836  55.330 169.5380  0.00  0.00     0.000 HD
ATOM     66   S  SGN F   4     -21.732  55.000 167.9690  0.00  0.00     0.000 S
ATOM     67   O  SGN F   4     -21.469  56.385 167.6240  0.00  0.00     0.000 OA
ATOM     68   O  SGN F   4     -20.758  54.092 167.3690  0.00  0.00     0.000 OA
ATOM     69   O  SGN F   4     -23.108  54.623 167.7360  0.00  0.00     0.000 OA
ATOM     70   O  SGN F   4     -20.187  52.875 171.1360  0.00  0.00     0.000 O
ATOM     72  HD  SGN F   4     -19.434  53.301 171.0840  0.00  0.00     0.000 HD
ATOM     72   C  SGN F   4     -17.095  56.441 172.5760  0.00  0.00     0.000 C
ATOM     73   O  SGN F   4     -16.198  55.939 171.6120  0.00  0.00     0.000 O
ATOM     74   S  SGN F   4     -14.830  56.577 171.2360  0.00  0.00     0.000 S
ATOM     75   O  SGN F   4     -14.275  57.175 172.4050  0.00  0.00     0.000 OA
ATOM     76   O  SGN F   4     -13.982  55.504 170.7190  0.00  0.00     0.000 OA
ATOM     77   O  SGN F   4     -15.172  57.569 170.2930  0.00  0.00     0.000 OA
BRANCH 58 78
ATOM     78  O4  IDS F   5     -20.914  57.142 171.2330  0.00  0.00     0.000 O
BRANCH 78 82
ATOM     79  C1  IDS F   5     -23.090  59.233 172.9770  0.00  0.00     0.000 C
ATOM     80  C2  IDS F   5     -23.616  58.186 172.0050  0.00  0.00     0.000 C
ATOM     81  C3  IDS F   5     -22.941  58.287 170.6360  0.00  0.00     0.000 C
ATOM     82  C4  IDS F   5     -21.407  58.372 170.7850  0.00  0.00     0.000 C
ATOM     83  C5  IDS F   5     -21.045  59.463 171.7960  0.00  0.00     0.000 C
ATOM     84  O5  IDS F   5     -21.687  59.225 173.0320  0.00  0.00     0.000 O
ATOM     85   O  IDS F   5     -23.608  60.483 172.5950  0.00  0.00     0.000 OA
ATOM     86   O  IDS F   5     -23.323  56.920 172.5280  0.00  0.00     0.000 O
ATOM     87   S  IDS F   5     -23.959  55.547 172.1350  0.00  0.00     0.000 S
ATOM     88   O  IDS F   5     -24.330  55.629 170.7470  0.00  0.00     0.000 OA
ATOM     89   O  IDS F   5     -22.939  54.550 172.3680  0.00  0.00     0.000 OA
ATOM     90   O  IDS F   5     -25.109  55.415 172.9900  0.00  0.00     0.000 OA
ATOM     91   O  IDS F   5     -23.406  59.461 170.0010  0.00  0.00     0.000 O
ATOM     93  HD  IDS F   5     -22.732  59.991 170.1200  0.00  0.00     0.000 HD
ATOM     93   O  IDS F   5     -19.026  59.422 173.0470  0.00  0.00     0.000 OA
ATOM     94   O  IDS F   5     -18.848  60.048 171.0780  0.00  0.00     0.000 OA
ATOM     95   C  IDS F   5     -19.553  59.657 171.9890  0.00  0.00     0.000 C
ENDBRANCH 78 82
ENDBRANCH 58 78
ENDBRANCH 57 61
ENDBRANCH 41 57
ENDBRANCH 40 44
ENDBRANCH 20 40
ENDBRANCH 19 23
ENDBRANCH 1 19
TORSDOF 8
ENDMDL
MODEL 77
REMARK VINA RESULT:      -5.3      3.573     13.376
FFDIST PL LJ 2322 74 36 -1
ROOT
ATOM      1  C1  IDS F   1     -21.754  49.550 172.9570  0.00  0.00     0.000 C
ATOM      2  C2  IDS F   1     -22.670  48.978 171.8630  0.00  0.00     0.000 C
ATOM      3  C3  IDS F   1     -23.880  49.889 171.5430  0.00  0.00     0.000 C
ATOM      4  C4  IDS F   1     -23.553  51.400 171.5730  0.00  0.00     0.000 C
ATOM      5  C5  IDS F   1     -22.581  51.712 172.7160  0.00  0.00     0.000 C
ATOM      6  O5  IDS F   1     -21.467  50.886 172.6400  0.00  0.00     0.000 O
ATOM      7   S  IDS F   1     -22.314  47.912 169.4060  0.00  0.00     0.000 S
ATOM      8   O  IDS F   1     -23.662  48.268 169.0810  0.00  0.00     0.000 OA
ATOM      9   O  IDS F   1     -21.418  48.249 168.3380  0.00  0.00     0.000 OA
ATOM     10   O  IDS F   1     -22.177  46.546 169.8550  0.00  0.00     0.000 OA
ATOM     11   O  IDS F   1     -21.945  48.813 170.6610  0.00  0.00     0.000 O
ATOM     12   O  IDS F   1     -24.911  49.632 172.4920  0.00  0.00     0.000 O
ATOM     14  HD  IDS F   1     -25.492  50.190 172.8110  0.00  0.00     0.000 HD
ATOM     14   O  IDS F   1     -22.956  51.726 170.3420  0.00  0.00     0.000 O
ATOM     16  HD  IDS F   1     -23.536  52.284 170.6610  0.00  0.00     0.000 HD
ATOM     16   O  IDS F   1     -20.962  53.412 173.1130  0.00  0.00     0.000 OA
ATOM     17   O  IDS F   1     -22.899  54.087 172.7010  0.00  0.00     0.000 OA
ATOM     18   C  IDS F   1     -22.127  53.152 172.8450  0.00  0.00     0.000 C
ENDROOT
BRANCH 1 19
ATOM     19  O4  SGN F   2     -20.561  48.843 172.9620  0.00  0.00     0.000 O
BRANCH 19 23
ATOM     20  C1  SGN F   2     -18.001  46.786 175.5320  0.00  0.00     0.000 C
ATOM     21  C2  SGN F   2     -19.251  46.029 175.1110  0.00  0.00     0.000 C
ATOM     22  C3  SGN F   2     -19.816  46.591 173.7990  0.00  0.00     0.000 C
ATOM     23  C4  SGN F   2     -20.088  48.106 174.0680  0.00  0.00     0.000 C
ATOM     24  C5  SGN F   2     -18.775  48.709 174.4430  0.00  0.00     0.000 C
ATOM     25  O5  SGN F   2     -18.304  48.150 175.6270  0.00  0.00     0.000 O
ATOM     26   N  SGN F   2     -18.954  44.576 175.1080  0.00  0.00     0.000 N
ATOM     28  HD  SGN F   2     -19.110  43.916 174.5700  0.00  0.00     0.000 HD
ATOM     28   S  SGN F   2     -19.033  43.765 176.5730  0.00  0.00     0.000 S
ATOM     29   O  SGN F   2     -18.263  44.525 177.5320  0.00  0.00     0.000 OA
ATOM     30   O  SGN F   2     -20.441  43.732 176.8980  0.00  0.00     0.000 OA
ATOM     31   O  SGN F   2     -18.523  42.462 176.3480  0.00  0.00     0.000 OA
ATOM     32   O  SGN F   2     -21.030  45.908 173.5060  0.00  0.00     0.000 O
ATOM     34  HD  SGN F   2     -21.186  45.248 172.9670  0.00  0.00     0.000 HD
ATOM     34   C  SGN F   2     -18.870  50.180 174.6790  0.00  0.00     0.000 C
ATOM     35   O  SGN F   2     -19.861  50.332 175.6370  0.00  0.00     0.000 O
ATOM     36   S  SGN F   2     -20.239  51.612 176.3740  0.00  0.00     0.000 S
ATOM     37   O  SGN F   2     -21.650  51.774 176.1330  0.00  0.00     0.000 OA
ATOM     38   O  SGN F   2     -19.891  51.347 177.7530  0.00  0.00     0.000 OA
ATOM     39   O  SGN F   2     -19.441  52.688 175.7980  0.00  0.00     0.000 OA
BRANCH 20 40
ATOM     40  O4  IDS F   3     -16.946  46.582 174.6310  0.00  0.00     0.000 O
BRANCH 40 44
ATOM     41  C1  IDS F   3     -14.026  45.594 172.9910  0.00  0.00     0.000 C
ATOM     42  C2  IDS F   3     -14.887  44.567 173.6820  0.00  0.00     0.000 C
ATOM     43  C3  IDS F   3     -15.253  44.974 175.1600  0.00  0.00     0.000 C
ATOM     44  C4  IDS F   3     -15.678  46.427 175.2550  0.00  0.00     0.000 C
ATOM     45  C5  IDS F   3     -14.640  47.299 174.5510  0.00  0.00     0.000 C
ATOM     46  O5  IDS F   3     -14.532  46.922 173.1960  0.00  0.00     0.000 O
ATOM     47   O  IDS F   3     -17.212  42.342 173.3280  0.00  0.00     0.000 OA
ATOM     48   O  IDS F   3     -17.476  43.396 171.2260  0.00  0.00     0.000 OA
ATOM     49   O  IDS F   3     -15.373  42.414 171.8730  0.00  0.00     0.000 OA
ATOM     50   O  IDS F   3     -16.076  44.374 172.9080  0.00  0.00     0.000 O
ATOM     51   S  IDS F   3     -16.566  43.057 172.2880  0.00  0.00     0.000 S
ATOM     52   O  IDS F   3     -14.109  44.819 175.9940  0.00  0.00     0.000 O
ATOM     54  HD  IDS F   3     -14.363  44.410 175.2740  0.00  0.00     0.000 HD
ATOM     54   C  IDS F   3     -14.866  48.810 174.6730  0.00  0.00     0.000 C
ATOM     55   O  IDS F   3     -15.403  49.447 173.7710  0.00  0.00     0.000 OA
ATOM     56   O  IDS F   3     -14.525  49.429 175.6890  0.00  0.00     0.000 OA
BRANCH 41 57
ATOM     57  O4  SGN F   4     -12.710  45.452 173.4410  0.00  0.00     0.000 O
BRANCH 57 61
ATOM     58  C1  SGN F   4      -9.181  46.993 172.0560  0.00  0.00     0.000 C
ATOM     59  C2  SGN F   4      -9.674  47.533 173.4080  0.00  0.00     0.000 C
ATOM     60  C3  SGN F   4     -10.740  46.634 174.0100  0.00  0.00     0.000 C
ATOM     61  C4  SGN F   4     -11.839  46.427 172.9700  0.00  0.00     0.000 C
ATOM     62  C5  SGN F   4     -11.228  45.943 171.6410  0.00  0.00     0.000 C
ATOM     63  O5  SGN F   4     -10.264  46.841 171.1820  0.00  0.00     0.000 O
ATOM     64   N  SGN F   4      -8.563  47.723 174.3210  0.00  0.00     0.000 N
ATOM     66  HD  SGN F   4      -8.864  47.866 173.5220  0.00  0.00     0.000 HD
ATOM     66   S  SGN F   4      -7.765  49.143 174.2520  0.00  0.00     0.000 S
ATOM     67   O  SGN F   4      -7.064  49.148 172.9810  0.00  0.00     0.000 OA
ATOM     68   O  SGN F   4      -8.745  50.224 174.3410  0.00  0.00     0.000 OA
ATOM     69   O  SGN F   4      -6.864  49.072 175.3810  0.00  0.00     0.000 OA
ATOM     70   O  SGN F   4     -11.319  47.269 175.1410  0.00  0.00     0.000 O
ATOM     72  HD  SGN F   4     -11.620  47.411 174.3420  0.00  0.00     0.000 HD
ATOM     72   C  SGN F   4     -12.214  45.829 170.5080  0.00  0.00     0.000 C
ATOM     73   O  SGN F   4     -12.771  47.108 170.3050  0.00  0.00     0.000 O
ATOM     74   S  SGN F   4     -13.283  47.662 168.9440  0.00  0.00     0.000 S
ATOM     75   O  SGN F   4     -13.825  46.580 168.1920  0.00  0.00     0.000 OA
ATOM     76   O  SGN F   4     -14.291  48.677 169.2450  0.00  0.00     0.000 OA
ATOM     77   O  SGN F   4     -12.115  48.153 168.3250  0.00  0.00     0.000 OA
BRANCH 58 78
ATOM     78  O4  IDS F   5      -8.483  45.783 172.2270  0.00  0.00     0.000 O
BRANCH 78 82
ATOM     79  C1  IDS F   5      -6.408  42.989 172.0240  0.00  0.00     0.000 C
ATOM     80  C2  IDS F   5      -6.208  44.040 173.1080  0.00  0.00     0.000 C
ATOM     81  C3  IDS F   5      -6.122  45.452 172.5250  0.00  0.00     0.000 C
ATOM     82  C4  IDS F   5      -7.274  45.707 171.5290  0.00  0.00     0.000 C
ATOM     83  C5  IDS F   5      -7.342  44.563 170.5150  0.00  0.00     0.000 C
ATOM     84  O5  IDS F   5      -7.476  43.322 171.1760  0.00  0.00     0.000 O
ATOM     85   O  IDS F   5      -5.194  42.840 171.3310  0.00  0.00     0.000 OA
ATOM     86   O  IDS F   5      -7.319  44.003 173.9600  0.00  0.00     0.000 O
ATOM     87   S  IDS F   5      -7.440  44.586 175.4060  0.00  0.00     0.000 S
ATOM     88   O  IDS F   5      -6.579  45.737 175.4770  0.00  0.00     0.000 OA
ATOM     89   O  IDS F   5      -8.831  44.935 175.5830  0.00  0.00     0.000 OA
ATOM     90   O  IDS F   5      -6.991  43.526 176.2700  0.00  0.00     0.000 OA
ATOM     91   O  IDS F   5      -4.890  45.572 171.8420  0.00  0.00     0.000 O
ATOM     93  HD  IDS F   5      -5.149  45.494 171.0200  0.00  0.00     0.000 HD
ATOM     93   O  IDS F   5      -9.352  43.974 169.3940  0.00  0.00     0.000 OA
ATOM     94   O  IDS F   5      -8.377  45.651 168.6620  0.00  0.00     0.000 OA
ATOM     95   C  IDS F   5      -8.421  44.735 169.4620  0.00  0.00     0.000 C
ENDBRANCH 78 82
ENDBRANCH 58 78
ENDBRANCH 57 61
ENDBRANCH 41 57
ENDBRANCH 40 44
ENDBRANCH 20 40
ENDBRANCH 19 23
ENDBRANCH 1 19
TORSDOF 8
ENDMDL
MODEL 78
REMARK VINA RESULT:      -5.3      3.775      7.610
FFDIST PL LJ 2322 74 36 -1
ROOT
ATOM      1  C1  IDS F   1     -12.166  47.817 174.6180  0.00  0.00     0.000 C
ATOM      2  C2  IDS F   1     -11.494  49.195 174.7360  0.00  0.00     0.000 C
ATOM      3  C3  IDS F   1     -12.130  50.092 175.8250  0.00  0.00     0.000 C
ATOM      4  C4  IDS F   1     -12.561  49.325 177.0970  0.00  0.00     0.000 C
ATOM      5  C5  IDS F   1     -13.151  47.961 176.7220  0.00  0.00     0.000 C
ATOM      6  O5  IDS F   1     -12.270  47.265 175.9030  0.00  0.00     0.000 O
ATOM      7   S  IDS F   1      -8.954  50.100 174.9090  0.00  0.00     0.000 S
ATOM      8   O  IDS F   1      -9.445  51.292 175.5310  0.00  0.00     0.000 OA
ATOM      9   O  IDS F   1      -7.804  49.592 175.5990  0.00  0.00     0.000 OA
ATOM     10   O  IDS F   1      -8.749  50.241 173.4860  0.00  0.00     0.000 OA
ATOM     11   O  IDS F   1     -10.129  49.042 175.0680  0.00  0.00     0.000 O
ATOM     12   O  IDS F   1     -13.277  50.736 175.2770  0.00  0.00     0.000 O
ATOM     14  HD  IDS F   1     -14.008  50.958 175.6840  0.00  0.00     0.000 HD
ATOM     14   O  IDS F   1     -11.413  49.144 177.8880  0.00  0.00     0.000 O
ATOM     16  HD  IDS F   1     -12.144  49.366 178.2960  0.00  0.00     0.000 HD
ATOM     16   O  IDS F   1     -13.351  45.866 177.8360  0.00  0.00     0.000 OA
ATOM     17   O  IDS F   1     -14.162  47.509 178.8470  0.00  0.00     0.000 OA
ATOM     18   C  IDS F   1     -13.577  47.069 177.8710  0.00  0.00     0.000 C
ENDROOT
BRANCH 1 19
ATOM     19  O4  SGN F   2     -11.358  46.985 173.8570  0.00  0.00     0.000 O
BRANCH 19 23
ATOM     20  C1  SGN F   2     -13.917  45.055 171.1900  0.00  0.00     0.000 C
ATOM     21  C2  SGN F   2     -13.273  44.162 172.2370  0.00  0.00     0.000 C
ATOM     22  C3  SGN F   2     -12.826  44.982 173.4570  0.00  0.00     0.000 C
ATOM     23  C4  SGN F   2     -11.850  46.069 172.9030  0.00  0.00     0.000 C
ATOM     24  C5  SGN F   2     -12.628  46.871 171.9140  0.00  0.00     0.000 C
ATOM     25  O5  SGN F   2     -13.021  46.074 170.8430  0.00  0.00     0.000 O
ATOM     26   N  SGN F   2     -14.183  43.029 172.5290  0.00  0.00     0.000 N
ATOM     28  HD  SGN F   2     -14.466  42.634 173.2450  0.00  0.00     0.000 HD
ATOM     28   S  SGN F   2     -14.150  41.719 171.4840  0.00  0.00     0.000 S
ATOM     29   O  SGN F   2     -14.258  42.235 170.1370  0.00  0.00     0.000 OA
ATOM     30   O  SGN F   2     -12.875  41.085 171.7310  0.00  0.00     0.000 OA
ATOM     31   O  SGN F   2     -15.228  40.875 171.8510  0.00  0.00     0.000 OA
ATOM     32   O  SGN F   2     -12.151  44.113 174.3580  0.00  0.00     0.000 O
ATOM     34  HD  SGN F   2     -12.434  43.718 175.0750  0.00  0.00     0.000 HD
ATOM     34   C  SGN F   2     -11.832  47.993 171.3370  0.00  0.00     0.000 C
ATOM     35   O  SGN F   2     -10.691  47.400 170.8170  0.00  0.00     0.000 O
ATOM     36   S  SGN F   2      -9.623  48.062 169.9530  0.00  0.00     0.000 S
ATOM     37   O  SGN F   2      -8.385  47.822 170.6500  0.00  0.00     0.000 OA
ATOM     38   O  SGN F   2      -9.732  47.394 168.6740  0.00  0.00     0.000 OA
ATOM     39   O  SGN F   2      -9.958  49.478 169.8690  0.00  0.00     0.000 OA
BRANCH 20 40
ATOM     40  O4  IDS F   3     -15.124  45.603 171.6490  0.00  0.00     0.000 O
BRANCH 40 44
ATOM     41  C1  IDS F   3     -18.504  46.002 172.4290  0.00  0.00     0.000 C
ATOM     42  C2  IDS F   3     -17.896  44.622 172.3950  0.00  0.00     0.000 C
ATOM     43  C3  IDS F   3     -17.081  44.349 171.0730  0.00  0.00     0.000 C
ATOM     44  C4  IDS F   3     -16.188  45.520 170.7100  0.00  0.00     0.000 C
ATOM     45  C5  IDS F   3     -17.013  46.807 170.7430  0.00  0.00     0.000 C
ATOM     46  O5  IDS F   3     -17.553  47.001 172.0310  0.00  0.00     0.000 O
ATOM     47   O  IDS F   3     -16.591  42.223 174.1330  0.00  0.00     0.000 OA
ATOM     48   O  IDS F   3     -16.492  43.897 175.8020  0.00  0.00     0.000 OA
ATOM     49   O  IDS F   3     -18.588  43.256 174.8030  0.00  0.00     0.000 OA
ATOM     50   O  IDS F   3     -17.054  44.467 173.5430  0.00  0.00     0.000 O
ATOM     51   S  IDS F   3     -17.187  43.404 174.6440  0.00  0.00     0.000 S
ATOM     52   O  IDS F   3     -17.983  44.160 169.9880  0.00  0.00     0.000 O
ATOM     54  HD  IDS F   3     -18.054  44.004 170.8370  0.00  0.00     0.000 HD
ATOM     54   C  IDS F   3     -16.276  48.065 170.2720  0.00  0.00     0.000 C
ATOM     55   O  IDS F   3     -15.785  48.853 171.0770  0.00  0.00     0.000 OA
ATOM     56   O  IDS F   3     -16.145  48.319 169.0670  0.00  0.00     0.000 OA
BRANCH 41 57
ATOM     57  O4  SGN F   4     -19.649  46.007 171.6270  0.00  0.00     0.000 O
BRANCH 57 61
ATOM     58  C1  SGN F   4     -21.393  49.040 173.7500  0.00  0.00     0.000 C
ATOM     59  C2  SGN F   4     -21.732  47.612 174.2030  0.00  0.00     0.000 C
ATOM     60  C3  SGN F   4     -20.750  46.601 173.6370  0.00  0.00     0.000 C
ATOM     61  C4  SGN F   4     -20.686  46.788 172.1220  0.00  0.00     0.000 C
ATOM     62  C5  SGN F   4     -20.401  48.263 171.7810  0.00  0.00     0.000 C
ATOM     63  O5  SGN F   4     -21.361  49.100 172.3510  0.00  0.00     0.000 O
ATOM     64   N  SGN F   4     -21.797  47.534 175.6500  0.00  0.00     0.000 N
ATOM     66  HD  SGN F   4     -22.050  47.969 174.9450  0.00  0.00     0.000 HD
ATOM     66   S  SGN F   4     -23.218  47.902 176.3620  0.00  0.00     0.000 S
ATOM     67   O  SGN F   4     -23.407  49.327 176.1660  0.00  0.00     0.000 OA
ATOM     68   O  SGN F   4     -24.268  47.116 175.7180  0.00  0.00     0.000 OA
ATOM     69   O  SGN F   4     -22.992  47.558 177.7480  0.00  0.00     0.000 OA
ATOM     70   O  SGN F   4     -21.214  45.284 173.8980  0.00  0.00     0.000 O
ATOM     72  HD  SGN F   4     -21.467  45.719 173.1930  0.00  0.00     0.000 HD
ATOM     72   C  SGN F   4     -20.443  48.580 170.3090  0.00  0.00     0.000 C
ATOM     73   O  SGN F   4     -21.734  48.256 169.8460  0.00  0.00     0.000 O
ATOM     74   S  SGN F   4     -22.473  48.960 168.6720  0.00  0.00     0.000 S
ATOM     75   O  SGN F   4     -21.506  49.356 167.7030  0.00  0.00     0.000 OA
ATOM     76   O  SGN F   4     -23.429  47.997 168.1260  0.00  0.00     0.000 OA
ATOM     77   O  SGN F   4     -23.055  50.094 169.2760  0.00  0.00     0.000 OA
BRANCH 58 78
ATOM     78  O4  IDS F   5     -20.175  49.467 174.3120  0.00  0.00     0.000 O
BRANCH 78 82
ATOM     79  C1  IDS F   5     -17.498  51.168 175.7570  0.00  0.00     0.000 C
ATOM     80  C2  IDS F   5     -18.303  50.149 176.5510  0.00  0.00     0.000 C
ATOM     81  C3  IDS F   5     -19.806  50.428 176.4820  0.00  0.00     0.000 C
ATOM     82  C4  IDS F   5     -20.254  50.667 175.0250  0.00  0.00     0.000 C
ATOM     83  C5  IDS F   5     -19.345  51.709 174.3690  0.00  0.00     0.000 C
ATOM     84  O5  IDS F   5     -17.993  51.308 174.4500  0.00  0.00     0.000 O
ATOM     85   O  IDS F   5     -17.505  52.380 176.4690  0.00  0.00     0.000 OA
ATOM     86   O  IDS F   5     -18.083  48.886 175.9880  0.00  0.00     0.000 O
ATOM     87   S  IDS F   5     -18.352  47.486 176.6310  0.00  0.00     0.000 S
ATOM     88   O  IDS F   5     -19.469  47.635 177.5270  0.00  0.00     0.000 OA
ATOM     89   O  IDS F   5     -18.647  46.591 175.5360  0.00  0.00     0.000 OA
ATOM     90   O  IDS F   5     -17.139  47.164 177.3360  0.00  0.00     0.000 OA
ATOM     91   O  IDS F   5     -20.073  51.590 177.2410  0.00  0.00     0.000 O
ATOM     93  HD  IDS F   5     -20.165  52.180 176.6130  0.00  0.00     0.000 HD
ATOM     93   O  IDS F   5     -18.988  51.791 172.0210  0.00  0.00     0.000 OA
ATOM     94   O  IDS F   5     -20.786  52.583 172.6820  0.00  0.00     0.000 OA
ATOM     95   C  IDS F   5     -19.725  52.048 172.9390  0.00  0.00     0.000 C
ENDBRANCH 78 82
ENDBRANCH 58 78
ENDBRANCH 57 61
ENDBRANCH 41 57
ENDBRANCH 40 44
ENDBRANCH 20 40
ENDBRANCH 19 23
ENDBRANCH 1 19
TORSDOF 8
ENDMDL
MODEL 79
REMARK VINA RESULT:      -5.2      4.339      8.387
FFDIST PL LJ 2322 74 36 -1
ROOT
ATOM      1  C1  IDS F   1     -11.941  49.007 174.5540  0.00  0.00     0.000 C
ATOM      2  C2  IDS F   1     -11.691  50.470 174.1510  0.00  0.00     0.000 C
ATOM      3  C3  IDS F   1     -12.634  51.468 174.8660  0.00  0.00     0.000 C
ATOM      4  C4  IDS F   1     -12.930  51.107 176.3400  0.00  0.00     0.000 C
ATOM      5  C5  IDS F   1     -13.085  49.590 176.4960  0.00  0.00     0.000 C
ATOM      6  O5  IDS F   1     -11.985  48.936 175.9540  0.00  0.00     0.000 O
ATOM      7   S  IDS F   1      -9.526  52.068 173.9140  0.00  0.00     0.000 S
ATOM      8   O  IDS F   1     -10.377  53.207 174.0820  0.00  0.00     0.000 OA
ATOM      9   O  IDS F   1      -8.336  52.189 174.7050  0.00  0.00     0.000 OA
ATOM     10   O  IDS F   1      -9.260  51.754 172.5290  0.00  0.00     0.000 OA
ATOM     11   O  IDS F   1     -10.367  50.844 174.4760  0.00  0.00     0.000 O
ATOM     12   O  IDS F   1     -13.870  51.519 174.1570  0.00  0.00     0.000 O
ATOM     14  HD  IDS F   1     -14.663  51.650 174.4800  0.00  0.00     0.000 HD
ATOM     14   O  IDS F   1     -11.841  51.553 177.1090  0.00  0.00     0.000 O
ATOM     16  HD  IDS F   1     -12.634  51.683 177.4320  0.00  0.00     0.000 HD
ATOM     16   O  IDS F   1     -12.778  48.056 178.2910  0.00  0.00     0.000 OA
ATOM     17   O  IDS F   1     -14.089  49.641 178.6700  0.00  0.00     0.000 OA
ATOM     18   C  IDS F   1     -13.331  49.075 177.8990  0.00  0.00     0.000 C
ENDROOT
BRANCH 1 19
ATOM     19  O4  SGN F   2     -10.877  48.232 174.1180  0.00  0.00     0.000 O
BRANCH 19 23
ATOM     20  C1  SGN F   2     -12.584  44.671 172.7750  0.00  0.00     0.000 C
ATOM     21  C2  SGN F   2     -11.622  44.534 173.9450  0.00  0.00     0.000 C
ATOM     22  C3  SGN F   2     -11.488  45.862 174.7030  0.00  0.00     0.000 C
ATOM     23  C4  SGN F   2     -11.010  46.908 173.6460  0.00  0.00     0.000 C
ATOM     24  C5  SGN F   2     -12.059  46.946 172.5840  0.00  0.00     0.000 C
ATOM     25  O5  SGN F   2     -12.148  45.713 171.9460  0.00  0.00     0.000 O
ATOM     26   N  SGN F   2     -12.029  43.368 174.7660  0.00  0.00     0.000 N
ATOM     28  HD  SGN F   2     -12.124  43.214 175.6130  0.00  0.00     0.000 HD
ATOM     28   S  SGN F   2     -11.530  41.851 174.2600  0.00  0.00     0.000 S
ATOM     29   O  SGN F   2     -11.859  41.731 172.8580  0.00  0.00     0.000 OA
ATOM     30   O  SGN F   2     -10.104  41.836 174.4960  0.00  0.00     0.000 OA
ATOM     31   O  SGN F   2     -12.199  40.906 175.0780  0.00  0.00     0.000 OA
ATOM     32   O  SGN F   2     -10.511  45.699 175.7240  0.00  0.00     0.000 O
ATOM     34  HD  SGN F   2     -10.606  45.544 176.5710  0.00  0.00     0.000 HD
ATOM     34   C  SGN F   2     -11.761  47.951 171.5230  0.00  0.00     0.000 C
ATOM     35   O  SGN F   2     -10.494  47.627 171.0600  0.00  0.00     0.000 O
ATOM     36   S  SGN F   2      -9.778  48.219 169.8510  0.00  0.00     0.000 S
ATOM     37   O  SGN F   2      -8.523  48.705 170.3670  0.00  0.00     0.000 OA
ATOM     38   O  SGN F   2      -9.659  47.112 168.9270  0.00  0.00     0.000 OA
ATOM     39   O  SGN F   2     -10.625  49.286 169.3320  0.00  0.00     0.000 OA
BRANCH 20 40
ATOM     40  O4  IDS F   3     -13.895  44.910 173.2090  0.00  0.00     0.000 O
BRANCH 40 44
ATOM     41  C1  IDS F   3     -17.125  44.446 174.4540  0.00  0.00     0.000 C
ATOM     42  C2  IDS F   3     -16.008  43.536 174.8980  0.00  0.00     0.000 C
ATOM     43  C3  IDS F   3     -15.184  42.949 173.6880  0.00  0.00     0.000 C
ATOM     44  C4  IDS F   3     -14.855  44.016 172.6610  0.00  0.00     0.000 C
ATOM     45  C5  IDS F   3     -16.132  44.777 172.3040  0.00  0.00     0.000 C
ATOM     46  O5  IDS F   3     -16.674  45.378 173.4590  0.00  0.00     0.000 O
ATOM     47   O  IDS F   3     -13.797  42.919 177.1810  0.00  0.00     0.000 OA
ATOM     48   O  IDS F   3     -14.351  45.112 177.8760  0.00  0.00     0.000 OA
ATOM     49   O  IDS F   3     -16.026  43.386 177.7470  0.00  0.00     0.000 OA
ATOM     50   O  IDS F   3     -15.149  44.265 175.7810  0.00  0.00     0.000 O
ATOM     51   S  IDS F   3     -14.812  43.909 177.2370  0.00  0.00     0.000 S
ATOM     52   O  IDS F   3     -15.955  41.954 173.0230  0.00  0.00     0.000 O
ATOM     54  HD  IDS F   3     -15.937  42.222 173.8470  0.00  0.00     0.000 HD
ATOM     54   C  IDS F   3     -15.984  45.806 171.1790  0.00  0.00     0.000 C
ATOM     55   O  IDS F   3     -15.838  47.001 171.4260  0.00  0.00     0.000 OA
ATOM     56   O  IDS F   3     -15.996  45.464 169.9890  0.00  0.00     0.000 OA
BRANCH 41 57
ATOM     57  O4  SGN F   4     -18.191  43.662 174.0030  0.00  0.00     0.000 O
BRANCH 57 61
ATOM     58  C1  SGN F   4     -20.821  46.782 173.6950  0.00  0.00     0.000 C
ATOM     59  C2  SGN F   4     -20.663  46.163 175.0930  0.00  0.00     0.000 C
ATOM     60  C3  SGN F   4     -19.407  45.314 175.1850  0.00  0.00     0.000 C
ATOM     61  C4  SGN F   4     -19.423  44.302 174.0410  0.00  0.00     0.000 C
ATOM     62  C5  SGN F   4     -19.646  45.024 172.6980  0.00  0.00     0.000 C
ATOM     63  O5  SGN F   4     -20.824  45.772 172.7250  0.00  0.00     0.000 O
ATOM     64   N  SGN F   4     -20.685  47.191 176.1160  0.00  0.00     0.000 N
ATOM     66  HD  SGN F   4     -21.075  46.877 175.4090  0.00  0.00     0.000 HD
ATOM     66   S  SGN F   4     -22.140  47.656 176.6860  0.00  0.00     0.000 S
ATOM     67   O  SGN F   4     -22.793  48.356 175.5960  0.00  0.00     0.000 OA
ATOM     68   O  SGN F   4     -22.877  46.460 177.0890  0.00  0.00     0.000 OA
ATOM     69   O  SGN F   4     -21.799  48.534 177.7830  0.00  0.00     0.000 OA
ATOM     70   O  SGN F   4     -19.405  44.592 176.4090  0.00  0.00     0.000 O
ATOM     72  HD  SGN F   4     -19.795  44.279 175.7020  0.00  0.00     0.000 HD
ATOM     72   C  SGN F   4     -19.806  44.104 171.5160  0.00  0.00     0.000 C
ATOM     73   O  SGN F   4     -20.920  43.281 171.7720  0.00  0.00     0.000 O
ATOM     74   S  SGN F   4     -21.863  42.678 170.6900  0.00  0.00     0.000 S
ATOM     75   O  SGN F   4     -21.091  42.399 169.5240  0.00  0.00     0.000 OA
ATOM     76   O  SGN F   4     -22.450  41.466 171.2580  0.00  0.00     0.000 OA
ATOM     77   O  SGN F   4     -22.781  43.718 170.4320  0.00  0.00     0.000 OA
BRANCH 58 78
ATOM     78  O4  IDS F   5     -19.808  47.728 173.4510  0.00  0.00     0.000 O
BRANCH 78 82
ATOM     79  C1  IDS F   5     -17.815  50.442 172.5500  0.00  0.00     0.000 C
ATOM     80  C2  IDS F   5     -18.396  50.325 173.9520  0.00  0.00     0.000 C
ATOM     81  C3  IDS F   5     -19.906  50.081 173.9270  0.00  0.00     0.000 C
ATOM     82  C4  IDS F   5     -20.263  48.948 172.9410  0.00  0.00     0.000 C
ATOM     83  C5  IDS F   5     -19.602  49.212 171.5870  0.00  0.00     0.000 C
ATOM     84  O5  IDS F   5     -18.205  49.363 171.7390  0.00  0.00     0.000 O
ATOM     85   O  IDS F   5     -18.204  51.684 172.0190  0.00  0.00     0.000 OA
ATOM     86   O  IDS F   5     -17.802  49.222 174.5780  0.00  0.00     0.000 O
ATOM     87   S  IDS F   5     -17.755  48.894 176.1060  0.00  0.00     0.000 S
ATOM     88   O  IDS F   5     -18.950  49.436 176.6970  0.00  0.00     0.000 OA
ATOM     89   O  IDS F   5     -17.702  47.453 176.2070  0.00  0.00     0.000 OA
ATOM     90   O  IDS F   5     -16.571  49.555 176.5890  0.00  0.00     0.000 OA
ATOM     91   O  IDS F   5     -20.537  51.273 173.5040  0.00  0.00     0.000 O
ATOM     93  HD  IDS F   5     -20.721  51.079 172.6800  0.00  0.00     0.000 HD
ATOM     93   O  IDS F   5     -19.061  47.465 170.0700  0.00  0.00     0.000 OA
ATOM     94   O  IDS F   5     -21.057  48.023 170.1210  0.00  0.00     0.000 OA
ATOM     95   C  IDS F   5     -19.921  48.173 170.5290  0.00  0.00     0.000 C
ENDBRANCH 78 82
ENDBRANCH 58 78
ENDBRANCH 57 61
ENDBRANCH 41 57
ENDBRANCH 40 44
ENDBRANCH 20 40
ENDBRANCH 19 23
ENDBRANCH 1 19
TORSDOF 8
ENDMDL
MODEL 80
REMARK VINA RESULT:      -5.2      4.760     10.015
FFDIST PL LJ 2322 74 36 -1
ROOT
ATOM      1  C1  IDS F   1      -9.309  55.181 172.2640  0.00  0.00     0.000 C
ATOM      2  C2  IDS F   1     -10.074  56.276 171.5020  0.00  0.00     0.000 C
ATOM      3  C3  IDS F   1      -9.147  57.364 170.9070  0.00  0.00     0.000 C
ATOM      4  C4  IDS F   1      -7.812  56.816 170.3510  0.00  0.00     0.000 C
ATOM      5  C5  IDS F   1      -7.278  55.699 171.2540  0.00  0.00     0.000 C
ATOM      6  O5  IDS F   1      -8.255  54.732 171.4550  0.00  0.00     0.000 O
ATOM      7   S  IDS F   1     -12.011  56.330 169.6200  0.00  0.00     0.000 S
ATOM      8   O  IDS F   1     -11.569  57.636 169.2350  0.00  0.00     0.000 OA
ATOM      9   O  IDS F   1     -12.251  55.505 168.4720  0.00  0.00     0.000 OA
ATOM     10   O  IDS F   1     -13.119  56.352 170.5470  0.00  0.00     0.000 OA
ATOM     11   O  IDS F   1     -10.792  55.707 170.4260  0.00  0.00     0.000 O
ATOM     12   O  IDS F   1      -8.854  58.322 171.9210  0.00  0.00     0.000 O
ATOM     14  HD  IDS F   1      -8.126  58.778 172.0270  0.00  0.00     0.000 HD
ATOM     14   O  IDS F   1      -8.070  56.304 169.0670  0.00  0.00     0.000 O
ATOM     16  HD  IDS F   1      -7.342  56.760 169.1730  0.00  0.00     0.000 HD
ATOM     16   O  IDS F   1      -5.862  53.815 170.9180  0.00  0.00     0.000 OA
ATOM     17   O  IDS F   1      -5.058  55.662 170.3550  0.00  0.00     0.000 OA
ATOM     18   C  IDS F   1      -5.994  55.026 170.8120  0.00  0.00     0.000 C
ENDROOT
BRANCH 1 19
ATOM     19  O4  SGN F   2     -10.162  54.111 172.4910  0.00  0.00     0.000 O
BRANCH 19 23
ATOM     20  C1  SGN F   2     -12.566  52.367 175.4190  0.00  0.00     0.000 C
ATOM     21  C2  SGN F   2     -13.007  53.743 174.9470  0.00  0.00     0.000 C
ATOM     22  C3  SGN F   2     -12.442  54.051 173.5520  0.00  0.00     0.000 C
ATOM     23  C4  SGN F   2     -10.891  53.925 173.6860  0.00  0.00     0.000 C
ATOM     24  C5  SGN F   2     -10.618  52.526 174.1290  0.00  0.00     0.000 C
ATOM     25  O5  SGN F   2     -11.168  52.299 175.3870  0.00  0.00     0.000 O
ATOM     26   N  SGN F   2     -14.481  53.846 175.0750  0.00  0.00     0.000 N
ATOM     28  HD  SGN F   2     -15.124  54.137 174.5750  0.00  0.00     0.000 HD
ATOM     28   S  SGN F   2     -15.102  54.234 176.5830  0.00  0.00     0.000 S
ATOM     29   O  SGN F   2     -14.483  53.353 177.5470  0.00  0.00     0.000 OA
ATOM     30   O  SGN F   2     -14.737  55.617 176.7850  0.00  0.00     0.000 OA
ATOM     31   O  SGN F   2     -16.508  54.077 176.4990  0.00  0.00     0.000 OA
ATOM     32   O  SGN F   2     -12.809  55.381 173.2050  0.00  0.00     0.000 O
ATOM     34  HD  SGN F   2     -13.453  55.673 172.7040  0.00  0.00     0.000 HD
ATOM     34   C  SGN F   2      -9.159  52.239 174.2470  0.00  0.00     0.000 C
ATOM     35   O  SGN F   2      -8.664  53.213 175.1010  0.00  0.00     0.000 O
ATOM     36   S  SGN F   2      -7.266  53.282 175.7070  0.00  0.00     0.000 S
ATOM     37   O  SGN F   2      -6.766  54.581 175.3330  0.00  0.00     0.000 OA
ATOM     38   O  SGN F   2      -7.483  53.108 177.1270  0.00  0.00     0.000 OA
ATOM     39   O  SGN F   2      -6.495  52.191 175.1260  0.00  0.00     0.000 OA
BRANCH 20 40
ATOM     40  O4  IDS F   3     -13.122  51.348 174.6310  0.00  0.00     0.000 O
BRANCH 40 44
ATOM     41  C1  IDS F   3     -15.532  49.215 173.2770  0.00  0.00     0.000 C
ATOM     42  C2  IDS F   3     -15.947  50.528 173.8930  0.00  0.00     0.000 C
ATOM     43  C3  IDS F   3     -15.333  50.749 175.3280  0.00  0.00     0.000 C
ATOM     44  C4  IDS F   3     -13.861  50.386 175.3710  0.00  0.00     0.000 C
ATOM     45  C5  IDS F   3     -13.669  48.998 174.7600  0.00  0.00     0.000 C
ATOM     46  O5  IDS F   3     -14.122  48.993 173.4240  0.00  0.00     0.000 O
ATOM     47   O  IDS F   3     -16.714  53.624 173.3420  0.00  0.00     0.000 OA
ATOM     48   O  IDS F   3     -15.785  53.157 171.2160  0.00  0.00     0.000 OA
ATOM     49   O  IDS F   3     -17.656  51.897 172.0630  0.00  0.00     0.000 OA
ATOM     50   O  IDS F   3     -15.556  51.588 173.0130  0.00  0.00     0.000 O
ATOM     51   S  IDS F   3     -16.478  52.628 172.3600  0.00  0.00     0.000 S
ATOM     52   O  IDS F   3     -15.997  49.908 176.2650  0.00  0.00     0.000 O
ATOM     54  HD  IDS F   3     -16.261  50.279 175.5280  0.00  0.00     0.000 HD
ATOM     54   C  IDS F   3     -12.246  48.437 174.8490  0.00  0.00     0.000 C
ATOM     55   O  IDS F   3     -11.475  48.507 173.8950  0.00  0.00     0.000 OA
ATOM     56   O  IDS F   3     -11.829  47.908 175.8870  0.00  0.00     0.000 OA
BRANCH 41 57
ATOM     57  O4  SGN F   4     -16.294  48.191 173.8480  0.00  0.00     0.000 O
BRANCH 57 61
ATOM     58  C1  SGN F   4     -16.396  44.131 173.3460  0.00  0.00     0.000 C
ATOM     59  C2  SGN F   4     -15.665  44.643 174.5980  0.00  0.00     0.000 C
ATOM     60  C3  SGN F   4     -16.024  46.087 174.8990  0.00  0.00     0.000 C
ATOM     61  C4  SGN F   4     -15.781  46.917 173.6400  0.00  0.00     0.000 C
ATOM     62  C5  SGN F   4     -16.509  46.282 172.4390  0.00  0.00     0.000 C
ATOM     63  O5  SGN F   4     -16.105  44.960 172.2550  0.00  0.00     0.000 O
ATOM     64   N  SGN F   4     -15.931  43.782 175.7350  0.00  0.00     0.000 N
ATOM     66  HD  SGN F   4     -15.696  43.814 174.9020  0.00  0.00     0.000 HD
ATOM     66   S  SGN F   4     -14.974  42.477 175.9330  0.00  0.00     0.000 S
ATOM     67   O  SGN F   4     -15.293  41.576 174.8410  0.00  0.00     0.000 OA
ATOM     68   O  SGN F   4     -13.582  42.920 175.8880  0.00  0.00     0.000 OA
ATOM     69   O  SGN F   4     -15.385  41.958 177.2180  0.00  0.00     0.000 OA
ATOM     70   O  SGN F   4     -15.177  46.588 175.9240  0.00  0.00     0.000 O
ATOM     72  HD  SGN F   4     -14.943  46.620 175.0910  0.00  0.00     0.000 HD
ATOM     72   C  SGN F   4     -16.231  46.953 171.1190  0.00  0.00     0.000 C
ATOM     73   O  SGN F   4     -14.843  46.876 170.8920  0.00  0.00     0.000 O
ATOM     74   S  SGN F   4     -14.160  46.802 169.4950  0.00  0.00     0.000 S
ATOM     75   O  SGN F   4     -14.938  47.562 168.5730  0.00  0.00     0.000 OA
ATOM     76   O  SGN F   4     -12.811  47.344 169.6470  0.00  0.00     0.000 OA
ATOM     77   O  SGN F   4     -14.215  45.431 169.1700  0.00  0.00     0.000 OA
BRANCH 58 78
ATOM     78  O4  IDS F   5     -17.782  44.049 173.5760  0.00  0.00     0.000 O
BRANCH 78 82
ATOM     79  C1  IDS F   5     -21.195  43.342 173.5870  0.00  0.00     0.000 C
ATOM     80  C2  IDS F   5     -20.303  42.928 174.7490  0.00  0.00     0.000 C
ATOM     81  C3  IDS F   5     -19.074  42.148 174.2760  0.00  0.00     0.000 C
ATOM     82  C4  IDS F   5     -18.379  42.875 173.1050  0.00  0.00     0.000 C
ATOM     83  C5  IDS F   5     -19.409  43.224 172.0290  0.00  0.00     0.000 C
ATOM     84  O5  IDS F   5     -20.461  43.990 172.5800  0.00  0.00     0.000 O
ATOM     85   O  IDS F   5     -21.860  42.195 173.1180  0.00  0.00     0.000 OA
ATOM     86   O  IDS F   5     -19.846  44.090 175.3820  0.00  0.00     0.000 O
ATOM     87   S  IDS F   5     -19.233  44.227 176.8150  0.00  0.00     0.000 S
ATOM     88   O  IDS F   5     -18.553  42.993 177.1090  0.00  0.00     0.000 OA
ATOM     89   O  IDS F   5     -18.323  45.349 176.7570  0.00  0.00     0.000 OA
ATOM     90   O  IDS F   5     -20.362  44.437 177.6810  0.00  0.00     0.000 OA
ATOM     91   O  IDS F   5     -19.503  40.875 173.8370  0.00  0.00     0.000 O
ATOM     93  HD  IDS F   5     -19.483  40.982 172.9770  0.00  0.00     0.000 HD
ATOM     93   O  IDS F   5     -19.117  45.044 170.5300  0.00  0.00     0.000 OA
ATOM     94   O  IDS F   5     -18.029  43.335 170.0880  0.00  0.00     0.000 OA
ATOM     95   C  IDS F   5     -18.821  43.910 170.8100  0.00  0.00     0.000 C
ENDBRANCH 78 82
ENDBRANCH 58 78
ENDBRANCH 57 61
ENDBRANCH 41 57
ENDBRANCH 40 44
ENDBRANCH 20 40
ENDBRANCH 19 23
ENDBRANCH 1 19
TORSDOF 8
ENDMDL
MODEL 81
REMARK VINA RESULT:      -5.1      3.584      8.081
FFDIST PL LJ 2322 74 36 -1
ROOT
ATOM      1  C1  IDS F   1     -17.786  43.709 173.1320  0.00  0.00     0.000 C
ATOM      2  C2  IDS F   1     -18.703  43.878 174.3550  0.00  0.00     0.000 C
ATOM      3  C3  IDS F   1     -20.203  43.689 174.0230  0.00  0.00     0.000 C
ATOM      4  C4  IDS F   1     -20.481  42.572 172.9900  0.00  0.00     0.000 C
ATOM      5  C5  IDS F   1     -19.402  42.572 171.9020  0.00  0.00     0.000 C
ATOM      6  O5  IDS F   1     -18.138  42.520 172.4770  0.00  0.00     0.000 O
ATOM      7   S  IDS F   1     -18.736  42.947 176.8910  0.00  0.00     0.000 S
ATOM      8   O  IDS F   1     -20.148  43.180 176.9340  0.00  0.00     0.000 OA
ATOM      9   O  IDS F   1     -18.406  41.665 177.4420  0.00  0.00     0.000 OA
ATOM     10   O  IDS F   1     -17.962  44.027 177.4560  0.00  0.00     0.000 OA
ATOM     11   O  IDS F   1     -18.373  42.925 175.3450  0.00  0.00     0.000 O
ATOM     12   O  IDS F   1     -20.718  44.915 173.5100  0.00  0.00     0.000 O
ATOM     14  HD  IDS F   1     -21.339  45.025 172.9170  0.00  0.00     0.000 HD
ATOM     14   O  IDS F   1     -20.458  41.347 173.6790  0.00  0.00     0.000 O
ATOM     16  HD  IDS F   1     -21.079  41.456 173.0860  0.00  0.00     0.000 HD
ATOM     16   O  IDS F   1     -18.511  40.922 170.4350  0.00  0.00     0.000 OA
ATOM     17   O  IDS F   1     -20.584  41.184 170.3480  0.00  0.00     0.000 OA
ATOM     18   C  IDS F   1     -19.512  41.497 170.8390  0.00  0.00     0.000 C
ENDROOT
BRANCH 1 19
ATOM     19  O4  SGN F   2     -16.474  43.589 173.5650  0.00  0.00     0.000 O
BRANCH 19 23
ATOM     20  C1  SGN F   2     -14.424  47.200 173.1830  0.00  0.00     0.000 C
ATOM     21  C2  SGN F   2     -14.507  46.359 171.9190  0.00  0.00     0.000 C
ATOM     22  C3  SGN F   2     -15.690  45.383 171.9860  0.00  0.00     0.000 C
ATOM     23  C4  SGN F   2     -15.460  44.524 173.2710  0.00  0.00     0.000 C
ATOM     24  C5  SGN F   2     -15.426  45.480 174.4170  0.00  0.00     0.000 C
ATOM     25  O5  SGN F   2     -14.346  46.349 174.2930  0.00  0.00     0.000 O
ATOM     26   N  SGN F   2     -14.488  47.260 170.7410  0.00  0.00     0.000 N
ATOM     28  HD  SGN F   2     -14.937  47.318 170.0030  0.00  0.00     0.000 HD
ATOM     28   S  SGN F   2     -12.997  47.805 170.2050  0.00  0.00     0.000 S
ATOM     29   O  SGN F   2     -12.283  48.316 171.3530  0.00  0.00     0.000 OA
ATOM     30   O  SGN F   2     -12.362  46.637 169.6360  0.00  0.00     0.000 OA
ATOM     31   O  SGN F   2     -13.251  48.788 169.2170  0.00  0.00     0.000 OA
ATOM     32   O  SGN F   2     -15.662  44.564 170.8230  0.00  0.00     0.000 O
ATOM     34  HD  SGN F   2     -16.111  44.623 170.0850  0.00  0.00     0.000 HD
ATOM     34   C  SGN F   2     -15.265  44.791 175.7300  0.00  0.00     0.000 C
ATOM     35   O  SGN F   2     -14.120  44.019 175.5990  0.00  0.00     0.000 O
ATOM     36   S  SGN F   2     -13.396  43.252 176.7000  0.00  0.00     0.000 S
ATOM     37   O  SGN F   2     -13.323  41.896 176.2180  0.00  0.00     0.000 OA
ATOM     38   O  SGN F   2     -12.116  43.917 176.8180  0.00  0.00     0.000 OA
ATOM     39   O  SGN F   2     -14.200  43.379 177.9090  0.00  0.00     0.000 OA
BRANCH 20 40
ATOM     40  O4  IDS F   3     -15.524  48.060 173.3040  0.00  0.00     0.000 O
BRANCH 40 44
ATOM     41  C1  IDS F   3     -17.947  50.528 172.8230  0.00  0.00     0.000 C
ATOM     42  C2  IDS F   3     -17.450  49.721 171.6500  0.00  0.00     0.000 C
ATOM     43  C3  IDS F   3     -15.877  49.671 171.5680  0.00  0.00     0.000 C
ATOM     44  C4  IDS F   3     -15.250  49.402 172.9230  0.00  0.00     0.000 C
ATOM     45  C5  IDS F   3     -15.844  50.367 173.9490  0.00  0.00     0.000 C
ATOM     46  O5  IDS F   3     -17.241  50.190 174.0260  0.00  0.00     0.000 O
ATOM     47   O  IDS F   3     -17.998  47.181 169.7190  0.00  0.00     0.000 OA
ATOM     48   O  IDS F   3     -19.569  46.630 171.4010  0.00  0.00     0.000 OA
ATOM     49   O  IDS F   3     -19.700  48.719 170.2090  0.00  0.00     0.000 OA
ATOM     50   O  IDS F   3     -17.988  48.397 171.7480  0.00  0.00     0.000 O
ATOM     51   S  IDS F   3     -18.873  47.685 170.7150  0.00  0.00     0.000 S
ATOM     52   O  IDS F   3     -15.383  50.931 171.1230  0.00  0.00     0.000 O
ATOM     54  HD  IDS F   3     -16.127  50.513 170.9750  0.00  0.00     0.000 HD
ATOM     54   C  IDS F   3     -15.215  50.303 175.3440  0.00  0.00     0.000 C
ATOM     55   O  IDS F   3     -15.746  49.668 176.2530  0.00  0.00     0.000 OA
ATOM     56   O  IDS F   3     -14.148  50.879 175.5950  0.00  0.00     0.000 OA
BRANCH 41 57
ATOM     57  O4  SGN F   4     -17.841  51.886 172.5090  0.00  0.00     0.000 O
BRANCH 57 61
ATOM     58  C1  SGN F   4     -20.226  55.187 172.9180  0.00  0.00     0.000 C
ATOM     59  C2  SGN F   4     -19.302  54.866 174.1030  0.00  0.00     0.000 C
ATOM     60  C3  SGN F   4     -18.201  53.898 173.7030  0.00  0.00     0.000 C
ATOM     61  C4  SGN F   4     -18.846  52.676 173.0530  0.00  0.00     0.000 C
ATOM     62  C5  SGN F   4     -19.795  53.117 171.9210  0.00  0.00     0.000 C
ATOM     63  O5  SGN F   4     -20.762  54.001 172.3990  0.00  0.00     0.000 O
ATOM     64   N  SGN F   4     -18.757  56.083 174.6730  0.00  0.00     0.000 N
ATOM     66  HD  SGN F   4     -19.473  55.679 174.4010  0.00  0.00     0.000 HD
ATOM     66   S  SGN F   4     -19.644  56.847 175.8080  0.00  0.00     0.000 S
ATOM     67   O  SGN F   4     -20.806  57.377 175.1190  0.00  0.00     0.000 OA
ATOM     68   O  SGN F   4     -20.012  55.873 176.8330  0.00  0.00     0.000 OA
ATOM     69   O  SGN F   4     -18.756  57.887 176.2770  0.00  0.00     0.000 OA
ATOM     70   O  SGN F   4     -17.502  53.463 174.8600  0.00  0.00     0.000 O
ATOM     72  HD  SGN F   4     -18.218  53.059 174.5880  0.00  0.00     0.000 HD
ATOM     72   C  SGN F   4     -20.581  51.993 171.2960  0.00  0.00     0.000 C
ATOM     73   O  SGN F   4     -21.349  51.399 172.3170  0.00  0.00     0.000 O
ATOM     74   S  SGN F   4     -22.729  50.708 172.1200  0.00  0.00     0.000 S
ATOM     75   O  SGN F   4     -22.743  50.086 170.8380  0.00  0.00     0.000 OA
ATOM     76   O  SGN F   4     -22.880  49.733 173.2000  0.00  0.00     0.000 OA
ATOM     77   O  SGN F   4     -23.646  51.779 172.1560  0.00  0.00     0.000 OA
BRANCH 58 78
ATOM     78  O4  IDS F   5     -19.538  55.916 171.9310  0.00  0.00     0.000 O
BRANCH 78 82
ATOM     79  C1  IDS F   5     -18.511  57.970 169.3080  0.00  0.00     0.000 C
ATOM     80  C2  IDS F   5     -18.184  58.318 170.7540  0.00  0.00     0.000 C
ATOM     81  C3  IDS F   5     -19.430  58.299 171.6420  0.00  0.00     0.000 C
ATOM     82  C4  IDS F   5     -20.245  57.008 171.4170  0.00  0.00     0.000 C
ATOM     83  C5  IDS F   5     -20.483  56.800 169.9200  0.00  0.00     0.000 C
ATOM     84  O5  IDS F   5     -19.256  56.782 169.2210  0.00  0.00     0.000 O
ATOM     85   O  IDS F   5     -19.177  59.067 168.7350  0.00  0.00     0.000 OA
ATOM     86   O  IDS F   5     -17.301  57.349 171.2460  0.00  0.00     0.000 O
ATOM     87   S  IDS F   5     -16.380  57.439 172.5060  0.00  0.00     0.000 S
ATOM     88   O  IDS F   5     -17.043  58.288 173.4610  0.00  0.00     0.000 OA
ATOM     89   O  IDS F   5     -16.229  56.086 172.9920  0.00  0.00     0.000 OA
ATOM     90   O  IDS F   5     -15.156  58.025 172.0270  0.00  0.00     0.000 OA
ATOM     91   O  IDS F   5     -20.230  59.413 171.3010  0.00  0.00     0.000 O
ATOM     93  HD  IDS F   5     -20.844  59.034 170.8220  0.00  0.00     0.000 HD
ATOM     93   O  IDS F   5     -20.844  54.652 168.9730  0.00  0.00     0.000 OA
ATOM     94   O  IDS F   5     -22.473  55.487 169.9460  0.00  0.00     0.000 OA
ATOM     95   C  IDS F   5     -21.313  55.574 169.5890  0.00  0.00     0.000 C
ENDBRANCH 78 82
ENDBRANCH 58 78
ENDBRANCH 57 61
ENDBRANCH 41 57
ENDBRANCH 40 44
ENDBRANCH 20 40
ENDBRANCH 19 23
ENDBRANCH 1 19
TORSDOF 8
ENDMDL
MODEL 82
REMARK VINA RESULT:      -5.1      3.343     11.944
FFDIST PL LJ 2322 74 36 -1
ROOT
ATOM      1  C1  IDS F   1     -19.217  57.119 169.0510  0.00  0.00     0.000 C
ATOM      2  C2  IDS F   1     -18.708  57.003 167.6050  0.00  0.00     0.000 C
ATOM      3  C3  IDS F   1     -19.720  56.315 166.6560  0.00  0.00     0.000 C
ATOM      4  C4  IDS F   1     -21.195  56.687 166.9350  0.00  0.00     0.000 C
ATOM      5  C5  IDS F   1     -21.440  56.796 168.4440  0.00  0.00     0.000 C
ATOM      6  O5  IDS F   1     -20.513  57.654 169.0220  0.00  0.00     0.000 O
ATOM      7   S  IDS F   1     -17.561  58.674 165.8180  0.00  0.00     0.000 S
ATOM      8   O  IDS F   1     -18.033  57.831 164.7610  0.00  0.00     0.000 OA
ATOM      9   O  IDS F   1     -17.791  60.058 165.5190  0.00  0.00     0.000 OA
ATOM     10   O  IDS F   1     -16.198  58.394 166.2060  0.00  0.00     0.000 OA
ATOM     11   O  IDS F   1     -18.451  58.289 167.0760  0.00  0.00     0.000 O
ATOM     12   O  IDS F   1     -19.579  54.902 166.7830  0.00  0.00     0.000 O
ATOM     14  HD  IDS F   1     -20.195  54.298 166.7100  0.00  0.00     0.000 HD
ATOM     14   O  IDS F   1     -21.437  57.930 166.3260  0.00  0.00     0.000 O
ATOM     16  HD  IDS F   1     -22.053  57.326 166.2530  0.00  0.00     0.000 HD
ATOM     16   O  IDS F   1     -22.991  57.987 169.8010  0.00  0.00     0.000 OA
ATOM     17   O  IDS F   1     -23.833  56.757 168.3330  0.00  0.00     0.000 OA
ATOM     18   C  IDS F   1     -22.834  57.202 168.8760  0.00  0.00     0.000 C
ENDROOT
BRANCH 1 19
ATOM     19  O4  SGN F   2     -18.403  58.002 169.7450  0.00  0.00     0.000 O
BRANCH 19 23
ATOM     20  C1  SGN F   2     -17.373  56.472 173.4860  0.00  0.00     0.000 C
ATOM     21  C2  SGN F   2     -18.728  57.159 173.4120  0.00  0.00     0.000 C
ATOM     22  C3  SGN F   2     -19.251  57.184 171.9680  0.00  0.00     0.000 C
ATOM     23  C4  SGN F   2     -18.154  57.917 171.1320  0.00  0.00     0.000 C
ATOM     24  C5  SGN F   2     -16.902  57.118 171.2850  0.00  0.00     0.000 C
ATOM     25  O5  SGN F   2     -16.487  57.115 172.6130  0.00  0.00     0.000 O
ATOM     26   N  SGN F   2     -19.635  56.540 174.4080  0.00  0.00     0.000 N
ATOM     28  HD  SGN F   2     -20.455  56.263 174.4070  0.00  0.00     0.000 HD
ATOM     28   S  SGN F   2     -19.523  57.072 175.9940  0.00  0.00     0.000 S
ATOM     29   O  SGN F   2     -18.126  57.042 176.3640  0.00  0.00     0.000 OA
ATOM     30   O  SGN F   2     -20.058  58.415 175.9690  0.00  0.00     0.000 OA
ATOM     31   O  SGN F   2     -20.332  56.208 176.7740  0.00  0.00     0.000 OA
ATOM     32   O  SGN F   2     -20.471  57.916 171.9470  0.00  0.00     0.000 O
ATOM     34  HD  SGN F   2     -21.291  57.640 171.9460  0.00  0.00     0.000 HD
ATOM     34   C  SGN F   2     -15.769  57.674 170.4890  0.00  0.00     0.000 C
ATOM     35   O  SGN F   2     -15.654  58.995 170.8940  0.00  0.00     0.000 O
ATOM     36   S  SGN F   2     -14.542  59.974 170.5320  0.00  0.00     0.000 S
ATOM     37   O  SGN F   2     -15.222  61.111 169.9630  0.00  0.00     0.000 OA
ATOM     38   O  SGN F   2     -13.875  60.239 171.7880  0.00  0.00     0.000 OA
ATOM     39   O  SGN F   2     -13.673  59.300 169.5750  0.00  0.00     0.000 OA
BRANCH 20 40
ATOM     40  O4  IDS F   3     -17.467  55.109 173.1700  0.00  0.00     0.000 O
BRANCH 40 44
ATOM     41  C1  IDS F   3     -17.607  51.620 173.1670  0.00  0.00     0.000 C
ATOM     42  C2  IDS F   3     -18.464  52.408 174.1250  0.00  0.00     0.000 C
ATOM     43  C3  IDS F   3     -17.644  53.491 174.9260  0.00  0.00     0.000 C
ATOM     44  C4  IDS F   3     -16.704  54.266 174.0230  0.00  0.00     0.000 C
ATOM     45  C5  IDS F   3     -15.887  53.281 173.1870  0.00  0.00     0.000 C
ATOM     46  O5  IDS F   3     -16.748  52.482 172.4060  0.00  0.00     0.000 O
ATOM     47   O  IDS F   3     -21.390  53.675 174.6860  0.00  0.00     0.000 OA
ATOM     48   O  IDS F   3     -21.691  53.220 172.3840  0.00  0.00     0.000 OA
ATOM     49   O  IDS F   3     -21.150  51.463 173.9410  0.00  0.00     0.000 OA
ATOM     50   O  IDS F   3     -19.522  53.028 173.3860  0.00  0.00     0.000 O
ATOM     51   S  IDS F   3     -21.030  52.834 173.6020  0.00  0.00     0.000 S
ATOM     52   O  IDS F   3     -16.841  52.849 175.9110  0.00  0.00     0.000 O
ATOM     54  HD  IDS F   3     -17.601  52.639 175.5530  0.00  0.00     0.000 HD
ATOM     54   C  IDS F   3     -14.798  53.913 172.3140  0.00  0.00     0.000 C
ATOM     55   O  IDS F   3     -14.985  54.127 171.1190  0.00  0.00     0.000 OA
ATOM     56   O  IDS F   3     -13.701  54.236 172.7900  0.00  0.00     0.000 OA
BRANCH 41 57
ATOM     57  O4  SGN F   4     -16.892  50.661 173.8900  0.00  0.00     0.000 O
BRANCH 57 61
ATOM     58  C1  SGN F   4     -15.902  46.713 173.4660  0.00  0.00     0.000 C
ATOM     59  C2  SGN F   4     -15.526  47.636 172.2960  0.00  0.00     0.000 C
ATOM     60  C3  SGN F   4     -15.564  49.097 172.7080  0.00  0.00     0.000 C
ATOM     61  C4  SGN F   4     -16.926  49.388 173.3340  0.00  0.00     0.000 C
ATOM     62  C5  SGN F   4     -17.225  48.369 174.4510  0.00  0.00     0.000 C
ATOM     63  O5  SGN F   4     -17.163  47.064 173.9630  0.00  0.00     0.000 O
ATOM     64   N  SGN F   4     -14.234  47.272 171.7490  0.00  0.00     0.000 N
ATOM     66  HD  SGN F   4     -15.010  46.983 172.0030  0.00  0.00     0.000 HD
ATOM     66   S  SGN F   4     -14.199  46.111 170.6050  0.00  0.00     0.000 S
ATOM     67   O  SGN F   4     -14.557  44.876 171.2750  0.00  0.00     0.000 OA
ATOM     68   O  SGN F   4     -15.159  46.468 169.5630  0.00  0.00     0.000 OA
ATOM     69   O  SGN F   4     -12.822  46.123 170.1640  0.00  0.00     0.000 OA
ATOM     70   O  SGN F   4     -15.422  49.923 171.5610  0.00  0.00     0.000 O
ATOM     72  HD  SGN F   4     -16.198  49.634 171.8150  0.00  0.00     0.000 HD
ATOM     72   C  SGN F   4     -18.602  48.488 175.0490  0.00  0.00     0.000 C
ATOM     73   O  SGN F   4     -19.531  48.294 174.0080  0.00  0.00     0.000 O
ATOM     74   S  SGN F   4     -20.953  47.684 174.1700  0.00  0.00     0.000 S
ATOM     75   O  SGN F   4     -21.463  48.063 175.4460  0.00  0.00     0.000 OA
ATOM     76   O  SGN F   4     -21.773  48.207 173.0780  0.00  0.00     0.000 OA
ATOM     77   O  SGN F   4     -20.726  46.293 174.1260  0.00  0.00     0.000 OA
BRANCH 58 78
ATOM     78  O4  IDS F   5     -14.920  46.759 174.4740  0.00  0.00     0.000 O
BRANCH 78 82
ATOM     79  C1  IDS F   5     -12.743  46.215 177.1400  0.00  0.00     0.000 C
ATOM     80  C2  IDS F   5     -12.256  46.137 175.7000  0.00  0.00     0.000 C
ATOM     81  C3  IDS F   5     -13.127  45.206 174.8530  0.00  0.00     0.000 C
ATOM     82  C4  IDS F   5     -14.625  45.521 175.0530  0.00  0.00     0.000 C
ATOM     83  C5  IDS F   5     -14.948  45.569 176.5480  0.00  0.00     0.000 C
ATOM     84  O5  IDS F   5     -14.116  46.503 177.2050  0.00  0.00     0.000 O
ATOM     85   O  IDS F   5     -12.414  45.006 177.7780  0.00  0.00     0.000 OA
ATOM     86   O  IDS F   5     -12.342  47.418 175.1410  0.00  0.00     0.000 O
ATOM     87   S  IDS F   5     -11.632  47.956 173.8560  0.00  0.00     0.000 S
ATOM     88   O  IDS F   5     -11.473  46.843 172.9580  0.00  0.00     0.000 OA
ATOM     89   O  IDS F   5     -12.502  48.974 173.3130  0.00  0.00     0.000 OA
ATOM     90   O  IDS F   5     -10.365  48.458 174.3170  0.00  0.00     0.000 OA
ATOM     91   O  IDS F   5     -12.879  43.877 175.2640  0.00  0.00     0.000 O
ATOM     93  HD  IDS F   5     -13.580  43.720 175.7470  0.00  0.00     0.000 HD
ATOM     93   O  IDS F   5     -16.754  46.842 177.4210  0.00  0.00     0.000 OA
ATOM     94   O  IDS F   5     -17.272  45.040 176.5360  0.00  0.00     0.000 OA
ATOM     95   C  IDS F   5     -16.409  45.835 176.8570  0.00  0.00     0.000 C
ENDBRANCH 78 82
ENDBRANCH 58 78
ENDBRANCH 57 61
ENDBRANCH 41 57
ENDBRANCH 40 44
ENDBRANCH 20 40
ENDBRANCH 19 23
ENDBRANCH 1 19
TORSDOF 8
ENDMDL
MODEL 83
REMARK VINA RESULT:      -5.0      4.307      7.805
FFDIST PL LJ 2322 74 36 -1
ROOT
ATOM      1  C1  IDS F   1      -7.908  48.971 172.0710  0.00  0.00     0.000 C
ATOM      2  C2  IDS F   1      -7.756  50.146 173.0510  0.00  0.00     0.000 C
ATOM      3  C3  IDS F   1      -6.636  51.135 172.6470  0.00  0.00     0.000 C
ATOM      4  C4  IDS F   1      -6.531  51.374 171.1220  0.00  0.00     0.000 C
ATOM      5  C5  IDS F   1      -6.773  50.067 170.3600  0.00  0.00     0.000 C
ATOM      6  O5  IDS F   1      -7.968  49.486 170.7680  0.00  0.00     0.000 O
ATOM      7   S  IDS F   1      -9.430  51.902 174.2400  0.00  0.00     0.000 S
ATOM      8   O  IDS F   1      -8.331  52.806 174.4000  0.00  0.00     0.000 OA
ATOM      9   O  IDS F   1     -10.596  52.584 173.7600  0.00  0.00     0.000 OA
ATOM     10   O  IDS F   1      -9.682  51.097 175.4120  0.00  0.00     0.000 OA
ATOM     11   O  IDS F   1      -8.960  50.883 173.1150  0.00  0.00     0.000 O
ATOM     12   O  IDS F   1      -5.387  50.631 173.1110  0.00  0.00     0.000 O
ATOM     14  HD  IDS F   1      -4.608  50.719 172.7440  0.00  0.00     0.000 HD
ATOM     14   O  IDS F   1      -7.517  52.315 170.7750  0.00  0.00     0.000 O
ATOM     16  HD  IDS F   1      -6.737  52.403 170.4070  0.00  0.00     0.000 HD
ATOM     16   O  IDS F   1      -7.565  49.528 168.1800  0.00  0.00     0.000 OA
ATOM     17   O  IDS F   1      -5.922  50.820 168.2510  0.00  0.00     0.000 OA
ATOM     18   C  IDS F   1      -6.750  50.151 168.8470  0.00  0.00     0.000 C
ENDROOT
BRANCH 1 19
ATOM     19  O4  SGN F   2      -9.104  48.319 172.3310  0.00  0.00     0.000 O
BRANCH 19 23
ATOM     20  C1  SGN F   2     -10.685  44.581 173.2890  0.00  0.00     0.000 C
ATOM     21  C2  SGN F   2      -9.806  45.211 174.3580  0.00  0.00     0.000 C
ATOM     22  C3  SGN F   2      -9.735  46.735 174.1810  0.00  0.00     0.000 C
ATOM     23  C4  SGN F   2      -9.193  46.969 172.7340  0.00  0.00     0.000 C
ATOM     24  C5  SGN F   2     -10.167  46.319 171.8080  0.00  0.00     0.000 C
ATOM     25  O5  SGN F   2     -10.202  44.945 172.0260  0.00  0.00     0.000 O
ATOM     26   N  SGN F   2     -10.259  44.744 175.6900  0.00  0.00     0.000 N
ATOM     28  HD  SGN F   2     -10.410  45.118 176.4560  0.00  0.00     0.000 HD
ATOM     28   S  SGN F   2      -9.714  43.248 176.2130  0.00  0.00     0.000 S
ATOM     29   O  SGN F   2      -9.945  42.303 175.1440  0.00  0.00     0.000 OA
ATOM     30   O  SGN F   2      -8.307  43.444 176.4830  0.00  0.00     0.000 OA
ATOM     31   O  SGN F   2     -10.430  42.943 177.3980  0.00  0.00     0.000 OA
ATOM     32   O  SGN F   2      -8.830  47.256 175.1460  0.00  0.00     0.000 O
ATOM     34  HD  SGN F   2      -8.981  47.631 175.9120  0.00  0.00     0.000 HD
ATOM     34   C  SGN F   2      -9.805  46.510 170.3730  0.00  0.00     0.000 C
ATOM     35   O  SGN F   2      -8.507  46.036 170.2590  0.00  0.00     0.000 O
ATOM     36   S  SGN F   2      -7.714  45.827 168.9730  0.00  0.00     0.000 S
ATOM     37   O  SGN F   2      -6.502  46.583 169.1610  0.00  0.00     0.000 OA
ATOM     38   O  SGN F   2      -7.523  44.395 168.8990  0.00  0.00     0.000 OA
ATOM     39   O  SGN F   2      -8.532  46.335 167.8790  0.00  0.00     0.000 OA
BRANCH 20 40
ATOM     40  O4  IDS F   3     -12.026  44.968 173.4290  0.00  0.00     0.000 O
BRANCH 40 44
ATOM     41  C1  IDS F   3     -15.380  45.152 174.3830  0.00  0.00     0.000 C
ATOM     42  C2  IDS F   3     -14.341  44.673 175.3660  0.00  0.00     0.000 C
ATOM     43  C3  IDS F   3     -13.411  43.548 174.7700  0.00  0.00     0.000 C
ATOM     44  C4  IDS F   3     -12.947  43.888 173.3660  0.00  0.00     0.000 C
ATOM     45  C5  IDS F   3     -14.158  44.283 172.5210  0.00  0.00     0.000 C
ATOM     46  O5  IDS F   3     -14.801  45.400 173.0930  0.00  0.00     0.000 O
ATOM     47   O  IDS F   3     -12.400  45.487 177.8260  0.00  0.00     0.000 OA
ATOM     48   O  IDS F   3     -12.963  47.681 177.1430  0.00  0.00     0.000 OA
ATOM     49   O  IDS F   3     -14.662  46.109 177.8110  0.00  0.00     0.000 OA
ATOM     50   O  IDS F   3     -13.560  45.797 175.7880  0.00  0.00     0.000 O
ATOM     51   S  IDS F   3     -13.387  46.309 177.2250  0.00  0.00     0.000 S
ATOM     52   O  IDS F   3     -14.136  42.325 174.6850  0.00  0.00     0.000 O
ATOM     54  HD  IDS F   3     -14.197  43.001 175.2230  0.00  0.00     0.000 HD
ATOM     54   C  IDS F   3     -13.864  44.532 171.0380  0.00  0.00     0.000 C
ATOM     55   O  IDS F   3     -13.712  45.670 170.6020  0.00  0.00     0.000 OA
ATOM     56   O  IDS F   3     -13.761  43.592 170.2380  0.00  0.00     0.000 OA
BRANCH 41 57
ATOM     57  O4  SGN F   4     -16.414  44.213 174.3310  0.00  0.00     0.000 O
BRANCH 57 61
ATOM     58  C1  SGN F   4     -19.221  47.139 173.7780  0.00  0.00     0.000 C
ATOM     59  C2  SGN F   4     -19.101  46.573 175.2020  0.00  0.00     0.000 C
ATOM     60  C3  SGN F   4     -17.800  45.813 175.3900  0.00  0.00     0.000 C
ATOM     61  C4  SGN F   4     -17.686  44.769 174.2810  0.00  0.00     0.000 C
ATOM     62  C5  SGN F   4     -17.880  45.435 172.9050  0.00  0.00     0.000 C
ATOM     63  O5  SGN F   4     -19.103  46.103 172.8440  0.00  0.00     0.000 O
ATOM     64   N  SGN F   4     -19.247  47.627 176.1870  0.00  0.00     0.000 N
ATOM     66  HD  SGN F   4     -19.575  47.267 175.4710  0.00  0.00     0.000 HD
ATOM     66   S  SGN F   4     -20.758  48.011 176.6630  0.00  0.00     0.000 S
ATOM     67   O  SGN F   4     -21.394  48.633 175.5170  0.00  0.00     0.000 OA
ATOM     68   O  SGN F   4     -21.437  46.781 177.0650  0.00  0.00     0.000 OA
ATOM     69   O  SGN F   4     -20.537  48.942 177.7470  0.00  0.00     0.000 OA
ATOM     70   O  SGN F   4     -17.819  45.130 176.6360  0.00  0.00     0.000 O
ATOM     72  HD  SGN F   4     -18.147  44.770 175.9200  0.00  0.00     0.000 HD
ATOM     72   C  SGN F   4     -17.913  44.471 171.7470  0.00  0.00     0.000 C
ATOM     73   O  SGN F   4     -18.984  43.584 171.9700  0.00  0.00     0.000 O
ATOM     74   S  SGN F   4     -19.824  42.887 170.8600  0.00  0.00     0.000 S
ATOM     75   O  SGN F   4     -18.971  42.626 169.7470  0.00  0.00     0.000 OA
ATOM     76   O  SGN F   4     -20.361  41.656 171.4350  0.00  0.00     0.000 OA
ATOM     77   O  SGN F   4     -20.792  43.855 170.5190  0.00  0.00     0.000 OA
BRANCH 58 78
ATOM     78  O4  IDS F   5     -18.259  48.143 173.5570  0.00  0.00     0.000 O
BRANCH 78 82
ATOM     79  C1  IDS F   5     -16.347  50.856 172.4940  0.00  0.00     0.000 C
ATOM     80  C2  IDS F   5     -17.063  50.878 173.8370  0.00  0.00     0.000 C
ATOM     81  C3  IDS F   5     -18.546  50.524 173.7000  0.00  0.00     0.000 C
ATOM     82  C4  IDS F   5     -18.730  49.251 172.8460  0.00  0.00     0.000 C
ATOM     83  C5  IDS F   5     -17.947  49.387 171.5390  0.00  0.00     0.000 C
ATOM     84  O5  IDS F   5     -16.586  49.657 171.8030  0.00  0.00     0.000 O
ATOM     85   O  IDS F   5     -16.751  51.989 171.7650  0.00  0.00     0.000 OA
ATOM     86   O  IDS F   5     -16.474  49.910 174.6600  0.00  0.00     0.000 O
ATOM     87   S  IDS F   5     -16.569  49.786 176.2160  0.00  0.00     0.000 S
ATOM     88   O  IDS F   5     -17.849  50.311 176.6100  0.00  0.00     0.000 OA
ATOM     89   O  IDS F   5     -16.442  48.378 176.5150  0.00  0.00     0.000 OA
ATOM     90   O  IDS F   5     -15.483  50.587 176.7170  0.00  0.00     0.000 OA
ATOM     91   O  IDS F   5     -19.199  51.603 173.0610  0.00  0.00     0.000 O
ATOM     93  HD  IDS F   5     -19.284  51.292 172.2570  0.00  0.00     0.000 HD
ATOM     93   O  IDS F   5     -17.148  47.504 170.3310  0.00  0.00     0.000 OA
ATOM     94   O  IDS F   5     -19.168  47.917 170.1130  0.00  0.00     0.000 OA
ATOM     95   C  IDS F   5     -18.092  48.200 170.6050  0.00  0.00     0.000 C
ENDBRANCH 78 82
ENDBRANCH 58 78
ENDBRANCH 57 61
ENDBRANCH 41 57
ENDBRANCH 40 44
ENDBRANCH 20 40
ENDBRANCH 19 23
ENDBRANCH 1 19
TORSDOF 8
ENDMDL
MODEL 84
REMARK VINA RESULT:      -5.0      2.903     11.348
FFDIST PL LJ 2322 74 36 -1
ROOT
ATOM      1  C1  IDS F   1     -20.471  50.476 174.1920  0.00  0.00     0.000 C
ATOM      2  C2  IDS F   1     -21.394  49.837 173.1410  0.00  0.00     0.000 C
ATOM      3  C3  IDS F   1     -21.524  48.302 173.2980  0.00  0.00     0.000 C
ATOM      4  C4  IDS F   1     -21.566  47.822 174.7670  0.00  0.00     0.000 C
ATOM      5  C5  IDS F   1     -20.601  48.647 175.6250  0.00  0.00     0.000 C
ATOM      6  O5  IDS F   1     -20.847  50.004 175.4580  0.00  0.00     0.000 O
ATOM      7   S  IDS F   1     -23.862  50.347 172.1680  0.00  0.00     0.000 S
ATOM      8   O  IDS F   1     -23.967  48.974 171.7770  0.00  0.00     0.000 OA
ATOM      9   O  IDS F   1     -25.066  50.798 172.8050  0.00  0.00     0.000 OA
ATOM     10   O  IDS F   1     -23.424  51.214 171.0990  0.00  0.00     0.000 OA
ATOM     11   O  IDS F   1     -22.696  50.377 173.2460  0.00  0.00     0.000 O
ATOM     12   O  IDS F   1     -20.416  47.680 172.6520  0.00  0.00     0.000 O
ATOM     14  HD  IDS F   1     -20.013  46.946 172.8760  0.00  0.00     0.000 HD
ATOM     14   O  IDS F   1     -22.882  48.001 175.2300  0.00  0.00     0.000 O
ATOM     16  HD  IDS F   1     -22.480  47.268 175.4540  0.00  0.00     0.000 HD
ATOM     16   O  IDS F   1     -20.495  49.224 177.9330  0.00  0.00     0.000 OA
ATOM     17   O  IDS F   1     -20.594  47.176 177.5160  0.00  0.00     0.000 OA
ATOM     18   C  IDS F   1     -20.566  48.325 177.1060  0.00  0.00     0.000 C
ENDROOT
BRANCH 1 19
ATOM     19  O4  SGN F   2     -20.652  51.851 174.1740  0.00  0.00     0.000 O
BRANCH 19 23
ATOM     20  C1  SGN F   2     -16.818  53.460 173.8530  0.00  0.00     0.000 C
ATOM     21  C2  SGN F   2     -17.591  53.858 175.1010  0.00  0.00     0.000 C
ATOM     22  C3  SGN F   2     -18.695  52.837 175.4100  0.00  0.00     0.000 C
ATOM     23  C4  SGN F   2     -19.593  52.783 174.1330  0.00  0.00     0.000 C
ATOM     24  C5  SGN F   2     -18.705  52.360 173.0100  0.00  0.00     0.000 C
ATOM     25  O5  SGN F   2     -17.715  53.312 172.7880  0.00  0.00     0.000 O
ATOM     26   N  SGN F   2     -16.629  54.111 176.2010  0.00  0.00     0.000 N
ATOM     28  HD  SGN F   2     -16.580  53.896 177.0380  0.00  0.00     0.000 HD
ATOM     28   S  SGN F   2     -15.892  55.615 176.2550  0.00  0.00     0.000 S
ATOM     29   O  SGN F   2     -15.368  55.890 174.9360  0.00  0.00     0.000 OA
ATOM     30   O  SGN F   2     -16.947  56.528 176.6320  0.00  0.00     0.000 OA
ATOM     31   O  SGN F   2     -14.889  55.543 177.2550  0.00  0.00     0.000 OA
ATOM     32   O  SGN F   2     -19.440  53.308 176.5270  0.00  0.00     0.000 O
ATOM     34  HD  SGN F   2     -19.391  53.093 177.3650  0.00  0.00     0.000 HD
ATOM     34   C  SGN F   2     -19.445  52.211 171.7230  0.00  0.00     0.000 C
ATOM     35   O  SGN F   2     -20.075  53.430 171.5210  0.00  0.00     0.000 O
ATOM     36   S  SGN F   2     -20.816  53.887 170.2690  0.00  0.00     0.000 S
ATOM     37   O  SGN F   2     -22.127  54.265 170.7350  0.00  0.00     0.000 OA
ATOM     38   O  SGN F   2     -20.020  54.982 169.7610  0.00  0.00     0.000 OA
ATOM     39   O  SGN F   2     -20.848  52.753 169.3540  0.00  0.00     0.000 OA
BRANCH 20 40
ATOM     40  O4  IDS F   3     -16.094  52.276 174.0500  0.00  0.00     0.000 O
BRANCH 40 44
ATOM     41  C1  IDS F   3     -13.641  49.844 174.5630  0.00  0.00     0.000 C
ATOM     42  C2  IDS F   3     -13.639  51.104 175.3920  0.00  0.00     0.000 C
ATOM     43  C3  IDS F   3     -13.749  52.410 174.5150  0.00  0.00     0.000 C
ATOM     44  C4  IDS F   3     -14.810  52.277 173.4390  0.00  0.00     0.000 C
ATOM     45  C5  IDS F   3     -14.592  50.969 172.6800  0.00  0.00     0.000 C
ATOM     46  O5  IDS F   3     -14.675  49.876 173.5680  0.00  0.00     0.000 O
ATOM     47   O  IDS F   3     -14.506  52.471 178.1950  0.00  0.00     0.000 OA
ATOM     48   O  IDS F   3     -15.820  50.513 178.3910  0.00  0.00     0.000 OA
ATOM     49   O  IDS F   3     -13.427  50.389 178.1460  0.00  0.00     0.000 OA
ATOM     50   O  IDS F   3     -14.722  51.037 176.3260  0.00  0.00     0.000 O
ATOM     51   S  IDS F   3     -14.620  51.098 177.8580  0.00  0.00     0.000 S
ATOM     52   O  IDS F   3     -12.511  52.645 173.8520  0.00  0.00     0.000 O
ATOM     54  HD  IDS F   3     -12.704  52.263 174.6050  0.00  0.00     0.000 HD
ATOM     54   C  IDS F   3     -15.512  50.754 171.4740  0.00  0.00     0.000 C
ATOM     55   O  IDS F   3     -16.517  50.052 171.5580  0.00  0.00     0.000 OA
ATOM     56   O  IDS F   3     -15.276  51.289 170.3830  0.00  0.00     0.000 OA
BRANCH 41 57
ATOM     57  O4  SGN F   4     -12.371  49.673 174.0050  0.00  0.00     0.000 O
BRANCH 57 61
ATOM     58  C1  SGN F   4     -12.797  45.614 173.6970  0.00  0.00     0.000 C
ATOM     59  C2  SGN F   4     -12.167  46.134 174.9990  0.00  0.00     0.000 C
ATOM     60  C3  SGN F   4     -12.420  47.620 175.1830  0.00  0.00     0.000 C
ATOM     61  C4  SGN F   4     -11.960  48.348 173.9220  0.00  0.00     0.000 C
ATOM     62  C5  SGN F   4     -12.604  47.709 172.6760  0.00  0.00     0.000 C
ATOM     63  O5  SGN F   4     -12.308  46.347 172.6080  0.00  0.00     0.000 O
ATOM     64   N  SGN F   4     -12.639  45.370 176.1380  0.00  0.00     0.000 N
ATOM     66  HD  SGN F   4     -12.310  45.332 175.3380  0.00  0.00     0.000 HD
ATOM     66   S  SGN F   4     -11.838  44.001 176.5120  0.00  0.00     0.000 S
ATOM     67   O  SGN F   4     -12.115  43.067 175.4360  0.00  0.00     0.000 OA
ATOM     68   O  SGN F   4     -10.414  44.316 176.6090  0.00  0.00     0.000 OA
ATOM     69   O  SGN F   4     -12.437  43.598 177.7640  0.00  0.00     0.000 OA
ATOM     70   O  SGN F   4     -11.651  48.105 176.2750  0.00  0.00     0.000 O
ATOM     72  HD  SGN F   4     -11.322  48.066 175.4750  0.00  0.00     0.000 HD
ATOM     72   C  SGN F   4     -12.117  48.272 171.3660  0.00  0.00     0.000 C
ATOM     73   O  SGN F   4     -10.726  48.059 171.3090  0.00  0.00     0.000 O
ATOM     74   S  SGN F   4      -9.900  47.842 170.0080  0.00  0.00     0.000 S
ATOM     75   O  SGN F   4     -10.493  48.610 168.9640  0.00  0.00     0.000 OA
ATOM     76   O  SGN F   4      -8.531  48.272 170.2900  0.00  0.00     0.000 OA
ATOM     77   O  SGN F   4     -10.047  46.464 169.7470  0.00  0.00     0.000 OA
BRANCH 58 78
ATOM     78  O4  IDS F   5     -14.201  45.667 173.7650  0.00  0.00     0.000 O
BRANCH 78 82
ATOM     79  C1  IDS F   5     -17.638  45.253 173.3580  0.00  0.00     0.000 C
ATOM     80  C2  IDS F   5     -16.961  44.948 174.6870  0.00  0.00     0.000 C
ATOM     81  C3  IDS F   5     -15.767  44.007 174.5170  0.00  0.00     0.000 C
ATOM     82  C4  IDS F   5     -14.846  44.489 173.3760  0.00  0.00     0.000 C
ATOM     83  C5  IDS F   5     -15.677  44.756 172.1190  0.00  0.00     0.000 C
ATOM     84  O5  IDS F   5     -16.710  45.679 172.3940  0.00  0.00     0.000 O
ATOM     85   O  IDS F   5     -18.347  44.108 172.9560  0.00  0.00     0.000 OA
ATOM     86   O  IDS F   5     -16.478  46.151 175.2170  0.00  0.00     0.000 O
ATOM     87   S  IDS F   5     -16.057  46.451 176.6920  0.00  0.00     0.000 S
ATOM     88   O  IDS F   5     -15.556  45.224 177.2520  0.00  0.00     0.000 OA
ATOM     89   O  IDS F   5     -15.037  47.473 176.6190  0.00  0.00     0.000 OA
ATOM     90   O  IDS F   5     -17.267  46.882 177.3410  0.00  0.00     0.000 OA
ATOM     91   O  IDS F   5     -16.260  42.722 174.1970  0.00  0.00     0.000 O
ATOM     93  HD  IDS F   5     -16.112  42.696 173.3440  0.00  0.00     0.000 HD
ATOM     93   O  IDS F   5     -14.996  46.298 170.4450  0.00  0.00     0.000 OA
ATOM     94   O  IDS F   5     -14.040  44.458 170.4110  0.00  0.00     0.000 OA
ATOM     95   C  IDS F   5     -14.860  45.199 170.9200  0.00  0.00     0.000 C
ENDBRANCH 78 82
ENDBRANCH 58 78
ENDBRANCH 57 61
ENDBRANCH 41 57
ENDBRANCH 40 44
ENDBRANCH 20 40
ENDBRANCH 19 23
ENDBRANCH 1 19
TORSDOF 8
ENDMDL
MODEL 85
REMARK VINA RESULT:      -5.0      3.591     10.631
FFDIST PL LJ 2322 74 36 -1
ROOT
ATOM      1  C1  IDS F   1     -17.094  57.441 169.2580  0.00  0.00     0.000 C
ATOM      2  C2  IDS F   1     -18.482  57.550 168.6070  0.00  0.00     0.000 C
ATOM      3  C3  IDS F   1     -18.483  58.395 167.3110  0.00  0.00     0.000 C
ATOM      4  C4  IDS F   1     -17.225  58.199 166.4330  0.00  0.00     0.000 C
ATOM      5  C5  IDS F   1     -15.977  58.062 167.3130  0.00  0.00     0.000 C
ATOM      6  O5  IDS F   1     -16.170  57.073 168.2700  0.00  0.00     0.000 O
ATOM      7   S  IDS F   1     -20.454  55.821 167.9560  0.00  0.00     0.000 S
ATOM      8   O  IDS F   1     -20.921  56.758 166.9780  0.00  0.00     0.000 OA
ATOM      9   O  IDS F   1     -20.421  54.490 167.4240  0.00  0.00     0.000 OA
ATOM     10   O  IDS F   1     -21.156  55.915 169.2150  0.00  0.00     0.000 OA
ATOM     11   O  IDS F   1     -18.961  56.264 168.2660  0.00  0.00     0.000 O
ATOM     12   O  IDS F   1     -18.577  59.774 167.6620  0.00  0.00     0.000 O
ATOM     14  HD  IDS F   1     -18.231  60.452 167.2500  0.00  0.00     0.000 HD
ATOM     14   O  IDS F   1     -17.411  57.020 165.6890  0.00  0.00     0.000 O
ATOM     16  HD  IDS F   1     -17.066  57.699 165.2770  0.00  0.00     0.000 HD
ATOM     16   O  IDS F   1     -13.854  57.019 167.0470  0.00  0.00     0.000 OA
ATOM     17   O  IDS F   1     -14.374  58.401 165.5650  0.00  0.00     0.000 OA
ATOM     18   C  IDS F   1     -14.666  57.815 166.5950  0.00  0.00     0.000 C
ENDROOT
BRANCH 1 19
ATOM     19  O4  SGN F   2     -17.122  56.437 170.2150  0.00  0.00     0.000 O
BRANCH 19 23
ATOM     20  C1  SGN F   2     -17.161  55.821 174.3390  0.00  0.00     0.000 C
ATOM     21  C2  SGN F   2     -18.430  56.422 173.7570  0.00  0.00     0.000 C
ATOM     22  C3  SGN F   2     -18.550  56.105 172.2590  0.00  0.00     0.000 C
ATOM     23  C4  SGN F   2     -17.252  56.673 171.6000  0.00  0.00     0.000 C
ATOM     24  C5  SGN F   2     -16.106  55.975 172.2540  0.00  0.00     0.000 C
ATOM     25  O5  SGN F   2     -16.059  56.285 173.6100  0.00  0.00     0.000 O
ATOM     26   N  SGN F   2     -19.584  56.009 174.5910  0.00  0.00     0.000 N
ATOM     28  HD  SGN F   2     -20.381  55.709 174.4360  0.00  0.00     0.000 HD
ATOM     28   S  SGN F   2     -19.885  56.885 175.9870  0.00  0.00     0.000 S
ATOM     29   O  SGN F   2     -18.638  56.991 176.7110  0.00  0.00     0.000 OA
ATOM     30   O  SGN F   2     -20.361  58.168 175.5200  0.00  0.00     0.000 OA
ATOM     31   O  SGN F   2     -20.892  56.188 176.7000  0.00  0.00     0.000 OA
ATOM     32   O  SGN F   2     -19.702  56.768 171.7520  0.00  0.00     0.000 O
ATOM     34  HD  SGN F   2     -20.499  56.468 171.5960  0.00  0.00     0.000 HD
ATOM     34   C  SGN F   2     -14.789  56.381 171.6820  0.00  0.00     0.000 C
ATOM     35   O  SGN F   2     -14.753  57.763 171.7940  0.00  0.00     0.000 O
ATOM     36   S  SGN F   2     -13.562  58.677 171.5290  0.00  0.00     0.000 S
ATOM     37   O  SGN F   2     -14.039  59.631 170.5600  0.00  0.00     0.000 OA
ATOM     38   O  SGN F   2     -13.247  59.240 172.8230  0.00  0.00     0.000 OA
ATOM     39   O  SGN F   2     -12.487  57.838 171.0130  0.00  0.00     0.000 OA
BRANCH 20 40
ATOM     40  O4  IDS F   3     -17.200  54.419 174.3250  0.00  0.00     0.000 O
BRANCH 40 44
ATOM     41  C1  IDS F   3     -17.869  51.078 175.0870  0.00  0.00     0.000 C
ATOM     42  C2  IDS F   3     -18.915  52.133 175.3430  0.00  0.00     0.000 C
ATOM     43  C3  IDS F   3     -18.351  53.368 176.1430  0.00  0.00     0.000 C
ATOM     44  C4  IDS F   3     -17.009  53.824 175.6020  0.00  0.00     0.000 C
ATOM     45  C5  IDS F   3     -16.082  52.615 175.4810  0.00  0.00     0.000 C
ATOM     46  O5  IDS F   3     -16.647  51.660 174.6110  0.00  0.00     0.000 O
ATOM     47   O  IDS F   3     -21.568  53.609 174.2160  0.00  0.00     0.000 OA
ATOM     48   O  IDS F   3     -20.939  52.534 172.2040  0.00  0.00     0.000 OA
ATOM     49   O  IDS F   3     -21.386  51.270 174.2050  0.00  0.00     0.000 OA
ATOM     50   O  IDS F   3     -19.453  52.557 174.0850  0.00  0.00     0.000 O
ATOM     51   S  IDS F   3     -20.922  52.484 173.6420  0.00  0.00     0.000 S
ATOM     52   O  IDS F   3     -18.148  53.002 177.5040  0.00  0.00     0.000 O
ATOM     54  HD  IDS F   3     -18.709  52.726 176.9050  0.00  0.00     0.000 HD
ATOM     54   C  IDS F   3     -14.642  52.937 175.0660  0.00  0.00     0.000 C
ATOM     55   O  IDS F   3     -14.273  52.812 173.9010  0.00  0.00     0.000 OA
ATOM     56   O  IDS F   3     -13.812  53.343 175.8900  0.00  0.00     0.000 OA
BRANCH 41 57
ATOM     57  O4  SGN F   4     -17.685  50.336 176.2570  0.00  0.00     0.000 O
BRANCH 57 61
ATOM     58  C1  SGN F   4     -16.617  47.007 174.1310  0.00  0.00     0.000 C
ATOM     59  C2  SGN F   4     -18.053  47.032 174.6770  0.00  0.00     0.000 C
ATOM     60  C3  SGN F   4     -18.468  48.434 175.0850  0.00  0.00     0.000 C
ATOM     61  C4  SGN F   4     -17.416  48.990 176.0420  0.00  0.00     0.000 C
ATOM     62  C5  SGN F   4     -16.012  48.861 175.4190  0.00  0.00     0.000 C
ATOM     63  O5  SGN F   4     -15.737  47.536 175.0840  0.00  0.00     0.000 O
ATOM     64   N  SGN F   4     -18.978  46.463 173.7160  0.00  0.00     0.000 N
ATOM     66  HD  SGN F   4     -18.226  46.359 174.1330  0.00  0.00     0.000 HD
ATOM     66   S  SGN F   4     -19.191  44.847 173.7400  0.00  0.00     0.000 S
ATOM     67   O  SGN F   4     -17.943  44.270 173.2760  0.00  0.00     0.000 OA
ATOM     68   O  SGN F   4     -19.503  44.447 175.1100  0.00  0.00     0.000 OA
ATOM     69   O  SGN F   4     -20.276  44.643 172.8060  0.00  0.00     0.000 OA
ATOM     70   O  SGN F   4     -19.708  48.386 175.7760  0.00  0.00     0.000 O
ATOM     72  HD  SGN F   4     -18.956  48.282 176.1930  0.00  0.00     0.000 HD
ATOM     72   C  SGN F   4     -14.886  49.265 176.3350  0.00  0.00     0.000 C
ATOM     73   O  SGN F   4     -14.949  48.433 177.4710  0.00  0.00     0.000 O
ATOM     74   S  SGN F   4     -13.732  47.993 178.3340  0.00  0.00     0.000 S
ATOM     75   O  SGN F   4     -12.780  49.054 178.3470  0.00  0.00     0.000 OA
ATOM     76   O  SGN F   4     -14.239  47.699 179.6740  0.00  0.00     0.000 OA
ATOM     77   O  SGN F   4     -13.216  46.879 177.6390  0.00  0.00     0.000 OA
BRANCH 58 78
ATOM     78  O4  IDS F   5     -16.534  47.704 172.9110  0.00  0.00     0.000 O
BRANCH 78 82
ATOM     79  C1  IDS F   5     -15.835  48.953 169.7330  0.00  0.00     0.000 C
ATOM     80  C2  IDS F   5     -17.028  48.038 169.9730  0.00  0.00     0.000 C
ATOM     81  C3  IDS F   5     -16.626  46.756 170.7060  0.00  0.00     0.000 C
ATOM     82  C4  IDS F   5     -15.752  47.077 171.9360  0.00  0.00     0.000 C
ATOM     83  C5  IDS F   5     -14.606  48.006 171.5290  0.00  0.00     0.000 C
ATOM     84  O5  IDS F   5     -15.111  49.174 170.9160  0.00  0.00     0.000 O
ATOM     85   O  IDS F   5     -15.048  48.385 168.7160  0.00  0.00     0.000 OA
ATOM     86   O  IDS F   5     -17.942  48.719 170.7870  0.00  0.00     0.000 O
ATOM     87   S  IDS F   5     -19.456  48.396 171.0100  0.00  0.00     0.000 S
ATOM     88   O  IDS F   5     -19.615  46.972 170.8700  0.00  0.00     0.000 OA
ATOM     89   O  IDS F   5     -19.770  48.850 172.3460  0.00  0.00     0.000 OA
ATOM     90   O  IDS F   5     -20.144  49.117 169.9730  0.00  0.00     0.000 OA
ATOM     91   O  IDS F   5     -15.882  45.952 169.8110  0.00  0.00     0.000 O
ATOM     93  HD  IDS F   5     -15.076  46.096 170.0930  0.00  0.00     0.000 HD
ATOM     93   O  IDS F   5     -13.558  49.486 173.0640  0.00  0.00     0.000 OA
ATOM     94   O  IDS F   5     -12.983  47.499 173.1990  0.00  0.00     0.000 OA
ATOM     95   C  IDS F   5     -13.660  48.355 172.6620  0.00  0.00     0.000 C
ENDBRANCH 78 82
ENDBRANCH 58 78
ENDBRANCH 57 61
ENDBRANCH 41 57
ENDBRANCH 40 44
ENDBRANCH 20 40
ENDBRANCH 19 23
ENDBRANCH 1 19
TORSDOF 8
ENDMDL
MODEL 86
REMARK VINA RESULT:      -4.9      4.265      8.205
FFDIST PL LJ 2322 74 36 -1
ROOT
ATOM      1  C1  IDS F   1      -8.822  45.106 173.3790  0.00  0.00     0.000 C
ATOM      2  C2  IDS F   1      -7.922  45.881 172.4030  0.00  0.00     0.000 C
ATOM      3  C3  IDS F   1      -6.521  45.245 172.2300  0.00  0.00     0.000 C
ATOM      4  C4  IDS F   1      -6.530  43.699 172.2190  0.00  0.00     0.000 C
ATOM      5  C5  IDS F   1      -7.545  43.165 173.2360  0.00  0.00     0.000 C
ATOM      6  O5  IDS F   1      -8.788  43.748 173.0280  0.00  0.00     0.000 O
ATOM      7   S  IDS F   1      -8.198  46.915 169.9220  0.00  0.00     0.000 S
ATOM      8   O  IDS F   1      -6.776  46.850 169.7610  0.00  0.00     0.000 OA
ATOM      9   O  IDS F   1      -8.874  46.430 168.7540  0.00  0.00     0.000 OA
ATOM     10   O  IDS F   1      -8.665  48.212 170.3530  0.00  0.00     0.000 OA
ATOM     11   O  IDS F   1      -8.519  45.926 171.1220  0.00  0.00     0.000 O
ATOM     12   O  IDS F   1      -5.683  45.683 173.2970  0.00  0.00     0.000 O
ATOM     14  HD  IDS F   1      -5.042  45.247 173.6830  0.00  0.00     0.000 HD
ATOM     14   O  IDS F   1      -6.899  43.290 170.9250  0.00  0.00     0.000 O
ATOM     16  HD  IDS F   1      -6.258  42.854 171.3110  0.00  0.00     0.000 HD
ATOM     16   O  IDS F   1      -8.814  41.161 173.4340  0.00  0.00     0.000 OA
ATOM     17   O  IDS F   1      -6.745  40.907 173.2580  0.00  0.00     0.000 OA
ATOM     18   C  IDS F   1      -7.704  41.660 173.3080  0.00  0.00     0.000 C
ENDROOT
BRANCH 1 19
ATOM     19  O4  SGN F   2     -10.127  45.553 173.2400  0.00  0.00     0.000 O
BRANCH 19 23
ATOM     20  C1  SGN F   2     -12.933  48.154 174.8990  0.00  0.00     0.000 C
ATOM     21  C2  SGN F   2     -11.588  48.776 174.5610  0.00  0.00     0.000 C
ATOM     22  C3  SGN F   2     -10.854  47.948 173.4950  0.00  0.00     0.000 C
ATOM     23  C4  SGN F   2     -10.725  46.509 174.0890  0.00  0.00     0.000 C
ATOM     24  C5  SGN F   2     -12.116  46.031 174.3430  0.00  0.00     0.000 C
ATOM     25  O5  SGN F   2     -12.736  46.827 175.3020  0.00  0.00     0.000 O
ATOM     26   N  SGN F   2     -11.789  50.207 174.2310  0.00  0.00     0.000 N
ATOM     28  HD  SGN F   2     -11.507  50.742 173.6110  0.00  0.00     0.000 HD
ATOM     28   S  SGN F   2     -11.896  51.289 175.5060  0.00  0.00     0.000 S
ATOM     29   O  SGN F   2     -12.856  50.757 176.4470  0.00  0.00     0.000 OA
ATOM     30   O  SGN F   2     -10.559  51.344 176.0540  0.00  0.00     0.000 OA
ATOM     31   O  SGN F   2     -12.281  52.536 174.9540  0.00  0.00     0.000 OA
ATOM     32   O  SGN F   2      -9.569  48.523 173.2880  0.00  0.00     0.000 O
ATOM     34  HD  SGN F   2      -9.288  49.058 172.6680  0.00  0.00     0.000 HD
ATOM     34   C  SGN F   2     -12.153  44.634 174.8670  0.00  0.00     0.000 C
ATOM     35   O  SGN F   2     -11.340  44.645 175.9910  0.00  0.00     0.000 O
ATOM     36   S  SGN F   2     -11.167  43.525 177.0110  0.00  0.00     0.000 S
ATOM     37   O  SGN F   2      -9.748  43.277 177.0490  0.00  0.00     0.000 OA
ATOM     38   O  SGN F   2     -11.715  44.068 178.2350  0.00  0.00     0.000 OA
ATOM     39   O  SGN F   2     -11.927  42.381 176.5230  0.00  0.00     0.000 OA
BRANCH 20 40
ATOM     40  O4  IDS F   3     -13.815  48.207 173.8100  0.00  0.00     0.000 O
BRANCH 40 44
ATOM     41  C1  IDS F   3     -16.881  48.154 172.1380  0.00  0.00     0.000 C
ATOM     42  C2  IDS F   3     -15.714  48.906 171.5490  0.00  0.00     0.000 C
ATOM     43  C3  IDS F   3     -15.026  49.873 172.5870  0.00  0.00     0.000 C
ATOM     44  C4  IDS F   3     -14.823  49.202 173.9330  0.00  0.00     0.000 C
ATOM     45  C5  IDS F   3     -16.138  48.560 174.3740  0.00  0.00     0.000 C
ATOM     46  O5  IDS F   3     -16.552  47.605 173.4230  0.00  0.00     0.000 O
ATOM     47   O  IDS F   3     -13.256  48.819 169.4440  0.00  0.00     0.000 OA
ATOM     48   O  IDS F   3     -13.745  46.504 169.4370  0.00  0.00     0.000 OA
ATOM     49   O  IDS F   3     -15.410  48.132 168.8190  0.00  0.00     0.000 OA
ATOM     50   O  IDS F   3     -14.767  47.956 171.0470  0.00  0.00     0.000 O
ATOM     51   S  IDS F   3     -14.265  47.836 169.6000  0.00  0.00     0.000 S
ATOM     52   O  IDS F   3     -15.859  51.006 172.8080  0.00  0.00     0.000 O
ATOM     54  HD  IDS F   3     -15.750  50.489 172.1220  0.00  0.00     0.000 HD
ATOM     54   C  IDS F   3     -16.126  47.951 175.7800  0.00  0.00     0.000 C
ATOM     55   O  IDS F   3     -15.963  46.745 175.9490  0.00  0.00     0.000 OA
ATOM     56   O  IDS F   3     -16.268  48.657 176.7870  0.00  0.00     0.000 OA
BRANCH 41 57
ATOM     57  O4  SGN F   4     -17.984  49.011 172.1930  0.00  0.00     0.000 O
BRANCH 57 61
ATOM     58  C1  SGN F   4     -20.581  46.064 173.3420  0.00  0.00     0.000 C
ATOM     59  C2  SGN F   4     -20.376  46.236 171.8280  0.00  0.00     0.000 C
ATOM     60  C3  SGN F   4     -19.130  47.049 171.5250  0.00  0.00     0.000 C
ATOM     61  C4  SGN F   4     -19.205  48.358 172.3090  0.00  0.00     0.000 C
ATOM     62  C5  SGN F   4     -19.471  48.069 173.7990  0.00  0.00     0.000 C
ATOM     63  O5  SGN F   4     -20.636  47.319 173.9600  0.00  0.00     0.000 O
ATOM     64   N  SGN F   4     -20.343  44.948 171.1640  0.00  0.00     0.000 N
ATOM     66  HD  SGN F   4     -20.765  45.450 171.7300  0.00  0.00     0.000 HD
ATOM     66   S  SGN F   4     -21.768  44.295 170.7120  0.00  0.00     0.000 S
ATOM     67   O  SGN F   4     -22.454  43.940 171.9410  0.00  0.00     0.000 OA
ATOM     68   O  SGN F   4     -22.505  45.295 169.9430  0.00  0.00     0.000 OA
ATOM     69   O  SGN F   4     -21.372  43.136 169.9440  0.00  0.00     0.000 OA
ATOM     70   O  SGN F   4     -19.090  47.368 170.1420  0.00  0.00     0.000 O
ATOM     72  HD  SGN F   4     -19.511  47.870 170.7070  0.00  0.00     0.000 HD
ATOM     72   C  SGN F   4     -19.690  49.299 174.6420  0.00  0.00     0.000 C
ATOM     73   O  SGN F   4     -20.805  49.978 174.1120  0.00  0.00     0.000 O
ATOM     74   S  SGN F   4     -21.798  50.855 174.9290  0.00  0.00     0.000 S
ATOM     75   O  SGN F   4     -21.077  51.492 175.9800  0.00  0.00     0.000 OA
ATOM     76   O  SGN F   4     -22.379  51.824 174.0020  0.00  0.00     0.000 OA
ATOM     77   O  SGN F   4     -22.711  49.919 175.4570  0.00  0.00     0.000 OA
BRANCH 58 78
ATOM     78  O4  IDS F   5     -19.565  45.261 173.8940  0.00  0.00     0.000 O
BRANCH 78 82
ATOM     79  C1  IDS F   5     -17.570  43.146 175.8170  0.00  0.00     0.000 C
ATOM     80  C2  IDS F   5     -18.011  42.751 174.4150  0.00  0.00     0.000 C
ATOM     81  C3  IDS F   5     -19.525  42.883 174.2330  0.00  0.00     0.000 C
ATOM     82  C4  IDS F   5     -20.022  44.251 174.7470  0.00  0.00     0.000 C
ATOM     83  C5  IDS F   5     -19.490  44.498 176.1600  0.00  0.00     0.000 C
ATOM     84  O5  IDS F   5     -18.081  44.403 176.1820  0.00  0.00     0.000 O
ATOM     85   O  IDS F   5     -17.963  42.127 176.7020  0.00  0.00     0.000 OA
ATOM     86   O  IDS F   5     -17.401  43.622 173.5040  0.00  0.00     0.000 O
ATOM     87   S  IDS F   5     -17.213  43.425 171.9640  0.00  0.00     0.000 S
ATOM     88   O  IDS F   5     -18.322  42.636 171.4960  0.00  0.00     0.000 OA
ATOM     89   O  IDS F   5     -17.207  44.751 171.3880  0.00  0.00     0.000 OA
ATOM     90   O  IDS F   5     -15.963  42.726 171.8300  0.00  0.00     0.000 OA
ATOM     91   O  IDS F   5     -20.149  41.858 174.9810  0.00  0.00     0.000 O
ATOM     93  HD  IDS F   5     -20.422  42.302 175.6730  0.00  0.00     0.000 HD
ATOM     93   O  IDS F   5     -19.171  46.683 177.0370  0.00  0.00     0.000 OA
ATOM     94   O  IDS F   5     -21.130  46.003 177.0150  0.00  0.00     0.000 OA
ATOM     95   C  IDS F   5     -19.954  45.805 176.7760  0.00  0.00     0.000 C
ENDBRANCH 78 82
ENDBRANCH 58 78
ENDBRANCH 57 61
ENDBRANCH 41 57
ENDBRANCH 40 44
ENDBRANCH 20 40
ENDBRANCH 19 23
ENDBRANCH 1 19
TORSDOF 8
ENDMDL
MODEL 87
REMARK VINA RESULT:      -4.7      3.767      5.776
FFDIST PL LJ 2322 74 36 -1
ROOT
ATOM      1  C1  IDS F   1     -15.254  44.824 173.0170  0.00  0.00     0.000 C
ATOM      2  C2  IDS F   1     -16.010  44.001 171.9610  0.00  0.00     0.000 C
ATOM      3  C3  IDS F   1     -15.393  42.602 171.7220  0.00  0.00     0.000 C
ATOM      4  C4  IDS F   1     -14.864  41.922 173.0060  0.00  0.00     0.000 C
ATOM      5  C5  IDS F   1     -14.201  42.956 173.9220  0.00  0.00     0.000 C
ATOM      6  O5  IDS F   1     -15.064  44.021 174.1510  0.00  0.00     0.000 O
ATOM      7   S  IDS F   1     -18.596  43.384 171.4780  0.00  0.00     0.000 S
ATOM      8   O  IDS F   1     -18.161  42.227 170.7540  0.00  0.00     0.000 OA
ATOM      9   O  IDS F   1     -19.683  43.066 172.3570  0.00  0.00     0.000 OA
ATOM     10   O  IDS F   1     -18.864  44.521 170.6280  0.00  0.00     0.000 OA
ATOM     11   O  IDS F   1     -17.349  43.801 172.3690  0.00  0.00     0.000 O
ATOM     12   O  IDS F   1     -14.313  42.728 170.8000  0.00  0.00     0.000 O
ATOM     14  HD  IDS F   1     -13.583  42.263 170.7700  0.00  0.00     0.000 HD
ATOM     14   O  IDS F   1     -15.966  41.347 173.6620  0.00  0.00     0.000 O
ATOM     16  HD  IDS F   1     -15.236  40.882 173.6320  0.00  0.00     0.000 HD
ATOM     16   O  IDS F   1     -13.819  43.108 176.2670  0.00  0.00     0.000 OA
ATOM     17   O  IDS F   1     -13.081  41.384 175.3410  0.00  0.00     0.000 OA
ATOM     18   C  IDS F   1     -13.673  42.447 175.2480  0.00  0.00     0.000 C
ENDROOT
BRANCH 1 19
ATOM     19  O4  SGN F   2     -16.034  45.910 173.3850  0.00  0.00     0.000 O
BRANCH 19 23
ATOM     20  C1  SGN F   2     -16.605  48.687 176.4440  0.00  0.00     0.000 C
ATOM     21  C2  SGN F   2     -15.158  48.440 176.0490  0.00  0.00     0.000 C
ATOM     22  C3  SGN F   2     -15.068  47.876 174.6240  0.00  0.00     0.000 C
ATOM     23  C4  SGN F   2     -15.926  46.570 174.6290  0.00  0.00     0.000 C
ATOM     24  C5  SGN F   2     -17.311  46.977 175.0080  0.00  0.00     0.000 C
ATOM     25  O5  SGN F   2     -17.328  47.496 176.2990  0.00  0.00     0.000 O
ATOM     26   N  SGN F   2     -14.375  49.674 176.2980  0.00  0.00     0.000 N
ATOM     28  HD  SGN F   2     -13.780  50.126 175.8590  0.00  0.00     0.000 HD
ATOM     28   S  SGN F   2     -13.835  49.947 177.8610  0.00  0.00     0.000 S
ATOM     29   O  SGN F   2     -14.963  49.773 178.7470  0.00  0.00     0.000 OA
ATOM     30   O  SGN F   2     -12.808  48.952 178.0740  0.00  0.00     0.000 OA
ATOM     31   O  SGN F   2     -13.297  51.258 177.8850  0.00  0.00     0.000 OA
ATOM     32   O  SGN F   2     -13.704  47.579 174.3450  0.00  0.00     0.000 O
ATOM     34  HD  SGN F   2     -13.110  48.031 173.9060  0.00  0.00     0.000 HD
ATOM     34   C  SGN F   2     -18.265  45.830 175.0010  0.00  0.00     0.000 C
ATOM     35   O  SGN F   2     -17.700  44.881 175.8410  0.00  0.00     0.000 O
ATOM     36   S  SGN F   2     -18.344  43.590 176.3350  0.00  0.00     0.000 S
ATOM     37   O  SGN F   2     -17.419  42.550 175.9590  0.00  0.00     0.000 OA
ATOM     38   O  SGN F   2     -18.484  43.783 177.7620  0.00  0.00     0.000 OA
ATOM     39   O  SGN F   2     -19.631  43.470 175.6630  0.00  0.00     0.000 OA
BRANCH 20 40
ATOM     40  O4  IDS F   3     -17.184  49.706 175.6740  0.00  0.00     0.000 O
BRANCH 40 44
ATOM     41  C1  IDS F   3     -18.254  52.832 174.5430  0.00  0.00     0.000 C
ATOM     42  C2  IDS F   3     -16.994  52.718 175.3640  0.00  0.00     0.000 C
ATOM     43  C3  IDS F   3     -17.200  51.878 176.6820  0.00  0.00     0.000 C
ATOM     44  C4  IDS F   3     -17.988  50.608 176.4230  0.00  0.00     0.000 C
ATOM     45  C5  IDS F   3     -19.252  50.955 175.6380  0.00  0.00     0.000 C
ATOM     46  O5  IDS F   3     -18.907  51.560 174.4120  0.00  0.00     0.000 O
ATOM     47   O  IDS F   3     -13.763  52.518 175.3040  0.00  0.00     0.000 OA
ATOM     48   O  IDS F   3     -14.139  52.083 173.0080  0.00  0.00     0.000 OA
ATOM     49   O  IDS F   3     -14.902  54.127 174.0300  0.00  0.00     0.000 OA
ATOM     50   O  IDS F   3     -15.972  52.129 174.5510  0.00  0.00     0.000 O
ATOM     51   S  IDS F   3     -14.613  52.748 174.1920  0.00  0.00     0.000 S
ATOM     52   O  IDS F   3     -17.943  52.644 177.6250  0.00  0.00     0.000 O
ATOM     54  HD  IDS F   3     -17.397  52.871 176.9920  0.00  0.00     0.000 HD
ATOM     54   C  IDS F   3     -20.219  49.788 175.4100  0.00  0.00     0.000 C
ATOM     55   O  IDS F   3     -20.231  49.171 174.3480  0.00  0.00     0.000 OA
ATOM     56   O  IDS F   3     -21.008  49.427 176.2930  0.00  0.00     0.000 OA
BRANCH 41 57
ATOM     57  O4  SGN F   4     -19.081  53.797 175.1240  0.00  0.00     0.000 O
BRANCH 57 61
ATOM     58  C1  SGN F   4     -21.228  57.056 173.8910  0.00  0.00     0.000 C
ATOM     59  C2  SGN F   4     -21.626  55.706 173.2720  0.00  0.00     0.000 C
ATOM     60  C3  SGN F   4     -21.066  54.542 174.0710  0.00  0.00     0.000 C
ATOM     61  C4  SGN F   4     -19.561  54.747 174.2310  0.00  0.00     0.000 C
ATOM     62  C5  SGN F   4     -19.274  56.150 174.8010  0.00  0.00     0.000 C
ATOM     63  O5  SGN F   4     -19.834  57.139 173.9910  0.00  0.00     0.000 O
ATOM     64   N  SGN F   4     -23.067  55.610 173.1340  0.00  0.00     0.000 N
ATOM     66  HD  SGN F   4     -22.366  56.100 172.9960  0.00  0.00     0.000 HD
ATOM     66   S  SGN F   4     -23.737  56.222 171.7800  0.00  0.00     0.000 S
ATOM     67   O  SGN F   4     -23.577  57.661 171.8670  0.00  0.00     0.000 OA
ATOM     68   O  SGN F   4     -23.033  55.661 170.6280  0.00  0.00     0.000 OA
ATOM     69   O  SGN F   4     -25.119  55.811 171.8800  0.00  0.00     0.000 OA
ATOM     70   O  SGN F   4     -21.272  53.330 173.3600  0.00  0.00     0.000 O
ATOM     72  HD  SGN F   4     -20.571  53.820 173.2210  0.00  0.00     0.000 HD
ATOM     72   C  SGN F   4     -17.812  56.502 174.8790  0.00  0.00     0.000 C
ATOM     73   O  SGN F   4     -17.293  56.436 173.5710  0.00  0.00     0.000 O
ATOM     74   S  SGN F   4     -16.114  57.292 173.0240  0.00  0.00     0.000 S
ATOM     75   O  SGN F   4     -15.193  57.521 174.0880  0.00  0.00     0.000 OA
ATOM     76   O  SGN F   4     -15.505  56.538 171.9300  0.00  0.00     0.000 OA
ATOM     77   O  SGN F   4     -16.730  58.501 172.6400  0.00  0.00     0.000 OA
BRANCH 58 78
ATOM     78  O4  IDS F   5     -21.846  57.233 175.1420  0.00  0.00     0.000 O
BRANCH 78 82
ATOM     79  C1  IDS F   5     -23.385  58.397 178.0450  0.00  0.00     0.000 C
ATOM     80  C2  IDS F   5     -24.143  57.535 177.0460  0.00  0.00     0.000 C
ATOM     81  C3  IDS F   5     -24.040  58.086 175.6220  0.00  0.00     0.000 C
ATOM     82  C4  IDS F   5     -22.575  58.420 175.2660  0.00  0.00     0.000 C
ATOM     83  C5  IDS F   5     -21.959  59.284 176.3680  0.00  0.00     0.000 C
ATOM     84  O5  IDS F   5     -22.068  58.640 177.6210  0.00  0.00     0.000 O
ATOM     85   O  IDS F   5     -24.116  59.582 178.2420  0.00  0.00     0.000 OA
ATOM     86   O  IDS F   5     -23.565  56.259 177.0450  0.00  0.00     0.000 O
ATOM     87   S  IDS F   5     -24.179  54.926 176.5060  0.00  0.00     0.000 S
ATOM     88   O  IDS F   5     -25.048  55.268 175.4110  0.00  0.00     0.000 OA
ATOM     89   O  IDS F   5     -23.063  54.112 176.0810  0.00  0.00     0.000 OA
ATOM     90   O  IDS F   5     -24.909  54.378 177.6180  0.00  0.00     0.000 OA
ATOM     91   O  IDS F   5     -24.810  59.270 175.5520  0.00  0.00     0.000 O
ATOM     93  HD  IDS F   5     -24.190  59.873 175.5870  0.00  0.00     0.000 HD
ATOM     93   O  IDS F   5     -19.623  59.324 176.7990  0.00  0.00     0.000 OA
ATOM     94   O  IDS F   5     -20.251  60.426 175.1600  0.00  0.00     0.000 OA
ATOM     95   C  IDS F   5     -20.526  59.702 176.0980  0.00  0.00     0.000 C
ENDBRANCH 78 82
ENDBRANCH 58 78
ENDBRANCH 57 61
ENDBRANCH 41 57
ENDBRANCH 40 44
ENDBRANCH 20 40
ENDBRANCH 19 23
ENDBRANCH 1 19
TORSDOF 8
ENDMDL
MODEL 88
REMARK VINA RESULT:      -4.6      3.900     10.962
FFDIST PL LJ 2322 74 36 -1
ROOT
ATOM      1  C1  IDS F   1     -21.300  49.273 172.0200  0.00  0.00     0.000 C
ATOM      2  C2  IDS F   1     -20.938  50.296 173.1090  0.00  0.00     0.000 C
ATOM      3  C3  IDS F   1     -20.380  51.622 172.5390  0.00  0.00     0.000 C
ATOM      4  C4  IDS F   1     -21.072  52.085 171.2350  0.00  0.00     0.000 C
ATOM      5  C5  IDS F   1     -21.379  50.880 170.3390  0.00  0.00     0.000 C
ATOM      6  O5  IDS F   1     -22.083  49.917 171.0510  0.00  0.00     0.000 O
ATOM      7   S  IDS F   1     -22.152  51.288 175.3100  0.00  0.00     0.000 S
ATOM      8   O  IDS F   1     -21.322  52.451 175.2150  0.00  0.00     0.000 OA
ATOM      9   O  IDS F   1     -23.516  51.645 175.5700  0.00  0.00     0.000 OA
ATOM     10   O  IDS F   1     -21.639  50.294 176.2240  0.00  0.00     0.000 OA
ATOM     11   O  IDS F   1     -22.084  50.620 173.8700  0.00  0.00     0.000 O
ATOM     12   O  IDS F   1     -18.989  51.460 172.2770  0.00  0.00     0.000 O
ATOM     14  HD  IDS F   1     -18.519  51.828 171.6500  0.00  0.00     0.000 HD
ATOM     14   O  IDS F   1     -22.272  52.722 171.5990  0.00  0.00     0.000 O
ATOM     16  HD  IDS F   1     -21.802  53.090 170.9720  0.00  0.00     0.000 HD
ATOM     16   O  IDS F   1     -22.993  50.426 168.6480  0.00  0.00     0.000 OA
ATOM     17   O  IDS F   1     -21.821  52.132 168.3450  0.00  0.00     0.000 OA
ATOM     18   C  IDS F   1     -22.104  51.170 169.0400  0.00  0.00     0.000 C
ENDROOT
BRANCH 1 19
ATOM     19  O4  SGN F   2     -22.062  48.262 172.5860  0.00  0.00     0.000 O
BRANCH 19 23
ATOM     20  C1  SGN F   2     -19.751  44.804 172.8940  0.00  0.00     0.000 C
ATOM     21  C2  SGN F   2     -20.537  44.951 171.6010  0.00  0.00     0.000 C
ATOM     22  C3  SGN F   2     -20.887  46.422 171.3350  0.00  0.00     0.000 C
ATOM     23  C4  SGN F   2     -21.687  46.901 172.5890  0.00  0.00     0.000 C
ATOM     24  C5  SGN F   2     -20.782  46.719 173.7620  0.00  0.00     0.000 C
ATOM     25  O5  SGN F   2     -20.486  45.371 173.9420  0.00  0.00     0.000 O
ATOM     26   N  SGN F   2     -19.803  44.263 170.5120  0.00  0.00     0.000 N
ATOM     28  HD  SGN F   2     -19.594  44.453 169.6930  0.00  0.00     0.000 HD
ATOM     28   S  SGN F   2     -20.001  42.605 170.3700  0.00  0.00     0.000 S
ATOM     29   O  SGN F   2     -19.795  42.029 171.6800  0.00  0.00     0.000 OA
ATOM     30   O  SGN F   2     -21.359  42.436 169.9010  0.00  0.00     0.000 OA
ATOM     31   O  SGN F   2     -19.063  42.161 169.4050  0.00  0.00     0.000 OA
ATOM     32   O  SGN F   2     -21.697  46.487 170.1680  0.00  0.00     0.000 O
ATOM     34  HD  SGN F   2     -21.488  46.677 169.3500  0.00  0.00     0.000 HD
ATOM     34   C  SGN F   2     -21.398  47.190 175.0370  0.00  0.00     0.000 C
ATOM     35   O  SGN F   2     -22.602  46.507 175.1340  0.00  0.00     0.000 O
ATOM     36   S  SGN F   2     -23.547  46.475 176.3300  0.00  0.00     0.000 S
ATOM     37   O  SGN F   2     -24.821  46.897 175.8040  0.00  0.00     0.000 OA
ATOM     38   O  SGN F   2     -23.509  45.100 176.7800  0.00  0.00     0.000 OA
ATOM     39   O  SGN F   2     -23.013  47.398 177.3220  0.00  0.00     0.000 OA
BRANCH 20 40
ATOM     40  O4  IDS F   3     -18.488  45.407 172.8020  0.00  0.00     0.000 O
BRANCH 40 44
ATOM     41  C1  IDS F   3     -15.134  46.283 173.2220  0.00  0.00     0.000 C
ATOM     42  C2  IDS F   3     -15.703  46.120 171.8350  0.00  0.00     0.000 C
ATOM     43  C3  IDS F   3     -16.487  44.765 171.6540  0.00  0.00     0.000 C
ATOM     44  C4  IDS F   3     -17.406  44.485 172.8280  0.00  0.00     0.000 C
ATOM     45  C5  IDS F   3     -16.619  44.643 174.1280  0.00  0.00     0.000 C
ATOM     46  O5  IDS F   3     -16.106  45.952 174.2260  0.00  0.00     0.000 O
ATOM     47   O  IDS F   3     -16.969  47.623 169.2620  0.00  0.00     0.000 OA
ATOM     48   O  IDS F   3     -17.142  49.426 170.7850  0.00  0.00     0.000 OA
ATOM     49   O  IDS F   3     -15.013  48.416 170.2870  0.00  0.00     0.000 OA
ATOM     50   O  IDS F   3     -16.559  47.234 171.5600  0.00  0.00     0.000 O
ATOM     51   S  IDS F   3     -16.414  48.243 170.4110  0.00  0.00     0.000 S
ATOM     52   O  IDS F   3     -15.563  43.684 171.5820  0.00  0.00     0.000 O
ATOM     54  HD  IDS F   3     -15.501  44.518 171.3570  0.00  0.00     0.000 HD
ATOM     54   C  IDS F   3     -17.382  44.266 175.4020  0.00  0.00     0.000 C
ATOM     55   O  IDS F   3     -17.908  45.125 176.1050  0.00  0.00     0.000 OA
ATOM     56   O  IDS F   3     -17.501  43.085 175.7540  0.00  0.00     0.000 OA
BRANCH 41 57
ATOM     57  O4  SGN F   4     -13.977  45.506 173.3260  0.00  0.00     0.000 O
BRANCH 57 61
ATOM     58  C1  SGN F   4     -12.289  48.193 175.9110  0.00  0.00     0.000 C
ATOM     59  C2  SGN F   4     -11.729  48.183 174.4800  0.00  0.00     0.000 C
ATOM     60  C3  SGN F   4     -12.664  47.467 173.5220  0.00  0.00     0.000 C
ATOM     61  C4  SGN F   4     -12.971  46.083 174.0920  0.00  0.00     0.000 C
ATOM     62  C5  SGN F   4     -13.467  46.207 175.5460  0.00  0.00     0.000 C
ATOM     63  O5  SGN F   4     -12.534  46.880 176.3340  0.00  0.00     0.000 O
ATOM     64   N  SGN F   4     -11.443  49.532 174.0320  0.00  0.00     0.000 N
ATOM     66  HD  SGN F   4     -11.346  48.956 174.6710  0.00  0.00     0.000 HD
ATOM     66   S  SGN F   4      -9.983  50.157 174.4040  0.00  0.00     0.000 S
ATOM     67   O  SGN F   4      -9.985  50.353 175.8410  0.00  0.00     0.000 OA
ATOM     68   O  SGN F   4      -8.957  49.205 173.9820  0.00  0.00     0.000 OA
ATOM     69   O  SGN F   4      -9.962  51.405 173.6750  0.00  0.00     0.000 OA
ATOM     70   O  SGN F   4     -12.023  47.292 172.2670  0.00  0.00     0.000 O
ATOM     72  HD  SGN F   4     -11.927  46.715 172.9060  0.00  0.00     0.000 HD
ATOM     72   C  SGN F   4     -13.678  44.889 176.2450  0.00  0.00     0.000 C
ATOM     73   O  SGN F   4     -12.442  44.214 176.2510  0.00  0.00     0.000 O
ATOM     74   S  SGN F   4     -11.967  43.212 177.3430  0.00  0.00     0.000 S
ATOM     75   O  SGN F   4     -13.105  42.508 177.8340  0.00  0.00     0.000 OA
ATOM     76   O  SGN F   4     -11.001  42.314 176.7120  0.00  0.00     0.000 OA
ATOM     77   O  SGN F   4     -11.433  44.044 178.3490  0.00  0.00     0.000 OA
BRANCH 58 78
ATOM     78  O4  IDS F   5     -13.450  48.983 175.9880  0.00  0.00     0.000 O
BRANCH 78 82
ATOM     79  C1  IDS F   5     -16.152  50.983 176.9110  0.00  0.00     0.000 C
ATOM     80  C2  IDS F   5     -15.047  51.521 176.0140  0.00  0.00     0.000 C
ATOM     81  C3  IDS F   5     -13.659  51.292 176.6170  0.00  0.00     0.000 C
ATOM     82  C4  IDS F   5     -13.502  49.834 177.0970  0.00  0.00     0.000 C
ATOM     83  C5  IDS F   5     -14.691  49.448 177.9790  0.00  0.00     0.000 C
ATOM     84  O5  IDS F   5     -15.906  49.652 177.2890  0.00  0.00     0.000 O
ATOM     85   O  IDS F   5     -16.276  51.843 178.0160  0.00  0.00     0.000 OA
ATOM     86   O  IDS F   5     -15.096  50.828 174.7980  0.00  0.00     0.000 O
ATOM     87   S  IDS F   5     -14.456  51.237 173.4310  0.00  0.00     0.000 S
ATOM     88   O  IDS F   5     -13.265  51.990 173.7250  0.00  0.00     0.000 OA
ATOM     89   O  IDS F   5     -14.164  50.003 172.7390  0.00  0.00     0.000 OA
ATOM     90   O  IDS F   5     -15.455  52.046 172.7830  0.00  0.00     0.000 OA
ATOM     91   O  IDS F   5     -13.513  52.158 177.7250  0.00  0.00     0.000 O
ATOM     93  HD  IDS F   5     -13.639  51.608 178.3820  0.00  0.00     0.000 HD
ATOM     93   O  IDS F   5     -15.420  47.200 178.2230  0.00  0.00     0.000 OA
ATOM     94   O  IDS F   5     -13.735  47.719 179.3130  0.00  0.00     0.000 OA
ATOM     95   C  IDS F   5     -14.615  48.040 178.5370  0.00  0.00     0.000 C
ENDBRANCH 78 82
ENDBRANCH 58 78
ENDBRANCH 57 61
ENDBRANCH 41 57
ENDBRANCH 40 44
ENDBRANCH 20 40
ENDBRANCH 19 23
ENDBRANCH 1 19
TORSDOF 8
ENDMDL
MODEL 89
REMARK VINA RESULT:      -4.6      3.520     11.717
FFDIST PL LJ 2322 74 36 -1
ROOT
ATOM      1  C1  IDS F   1     -17.216  58.073 168.9970  0.00  0.00     0.000 C
ATOM      2  C2  IDS F   1     -18.508  58.452 168.2530  0.00  0.00     0.000 C
ATOM      3  C3  IDS F   1     -18.265  59.404 167.0570  0.00  0.00     0.000 C
ATOM      4  C4  IDS F   1     -16.972  59.101 166.2660  0.00  0.00     0.000 C
ATOM      5  C5  IDS F   1     -15.845  58.694 167.2220  0.00  0.00     0.000 C
ATOM      6  O5  IDS F   1     -16.266  57.662 168.0510  0.00  0.00     0.000 O
ATOM      7   S  IDS F   1     -20.638  57.112 167.2700  0.00  0.00     0.000 S
ATOM      8   O  IDS F   1     -20.871  58.195 166.3620  0.00  0.00     0.000 OA
ATOM      9   O  IDS F   1     -20.746  55.846 166.6050  0.00  0.00     0.000 OA
ATOM     10   O  IDS F   1     -21.434  57.195 168.4720  0.00  0.00     0.000 OA
ATOM     11   O  IDS F   1     -19.132  57.292 167.7410  0.00  0.00     0.000 O
ATOM     12   O  IDS F   1     -18.193  60.742 167.5430  0.00  0.00     0.000 O
ATOM     14  HD  IDS F   1     -17.716  61.396 167.2330  0.00  0.00     0.000 HD
ATOM     14   O  IDS F   1     -17.255  58.038 165.3890  0.00  0.00     0.000 O
ATOM     16  HD  IDS F   1     -16.778  58.691 165.0790  0.00  0.00     0.000 HD
ATOM     16   O  IDS F   1     -13.878  57.369 167.0160  0.00  0.00     0.000 OA
ATOM     17   O  IDS F   1     -14.053  58.945 165.6520  0.00  0.00     0.000 OA
ATOM     18   C  IDS F   1     -14.521  58.317 166.5880  0.00  0.00     0.000 C
ENDROOT
BRANCH 1 19
ATOM     19  O4  SGN F   2     -17.478  57.001 169.8370  0.00  0.00     0.000 O
BRANCH 19 23
ATOM     20  C1  SGN F   2     -17.006  55.853 173.8180  0.00  0.00     0.000 C
ATOM     21  C2  SGN F   2     -18.271  56.639 173.5110  0.00  0.00     0.000 C
ATOM     22  C3  SGN F   2     -18.633  56.535 172.0230  0.00  0.00     0.000 C
ATOM     23  C4  SGN F   2     -17.386  57.064 171.2440  0.00  0.00     0.000 C
ATOM     24  C5  SGN F   2     -16.244  56.184 171.6290  0.00  0.00     0.000 C
ATOM     25  O5  SGN F   2     -15.973  56.306 172.9890  0.00  0.00     0.000 O
ATOM     26   N  SGN F   2     -19.335  56.226 174.4580  0.00  0.00     0.000 N
ATOM     28  HD  SGN F   2     -20.174  56.023 174.3920  0.00  0.00     0.000 HD
ATOM     28   S  SGN F   2     -19.339  56.935 175.9770  0.00  0.00     0.000 S
ATOM     29   O  SGN F   2     -17.999  56.829 176.5090  0.00  0.00     0.000 OA
ATOM     30   O  SGN F   2     -19.732  58.306 175.7410  0.00  0.00     0.000 OA
ATOM     31   O  SGN F   2     -20.307  56.244 176.7480  0.00  0.00     0.000 OA
ATOM     32   O  SGN F   2     -19.765  57.361 171.7790  0.00  0.00     0.000 O
ATOM     34  HD  SGN F   2     -20.604  57.158 171.7130  0.00  0.00     0.000 HD
ATOM     34   C  SGN F   2     -14.984  56.540 170.9140  0.00  0.00     0.000 C
ATOM     35   O  SGN F   2     -14.781  57.886 171.1810  0.00  0.00     0.000 O
ATOM     36   S  SGN F   2     -13.545  58.714 170.8450  0.00  0.00     0.000 S
ATOM     37   O  SGN F   2     -14.045  59.828 170.0790  0.00  0.00     0.000 OA
ATOM     38   O  SGN F   2     -12.992  59.071 172.1330  0.00  0.00     0.000 OA
ATOM     39   O  SGN F   2     -12.652  57.857 170.0760  0.00  0.00     0.000 OA
BRANCH 20 40
ATOM     40  O4  IDS F   3     -17.201  54.475 173.6460  0.00  0.00     0.000 O
BRANCH 40 44
ATOM     41  C1  IDS F   3     -17.295  50.986 173.7720  0.00  0.00     0.000 C
ATOM     42  C2  IDS F   3     -18.053  51.798 174.7920  0.00  0.00     0.000 C
ATOM     43  C3  IDS F   3     -17.166  52.915 175.4630  0.00  0.00     0.000 C
ATOM     44  C4  IDS F   3     -16.339  53.668 174.4380  0.00  0.00     0.000 C
ATOM     45  C5  IDS F   3     -15.605  52.663 173.5510  0.00  0.00     0.000 C
ATOM     46  O5  IDS F   3     -16.534  51.830 172.8940  0.00  0.00     0.000 O
ATOM     47   O  IDS F   3     -20.917  53.056 175.6260  0.00  0.00     0.000 OA
ATOM     48   O  IDS F   3     -21.460  52.520 173.3860  0.00  0.00     0.000 OA
ATOM     49   O  IDS F   3     -20.731  50.822 174.9320  0.00  0.00     0.000 OA
ATOM     50   O  IDS F   3     -19.193  52.383 174.1520  0.00  0.00     0.000 O
ATOM     51   S  IDS F   3     -20.666  52.182 174.5370  0.00  0.00     0.000 S
ATOM     52   O  IDS F   3     -16.252  52.314 176.3750  0.00  0.00     0.000 O
ATOM     54  HD  IDS F   3     -17.043  52.085 176.1090  0.00  0.00     0.000 HD
ATOM     54   C  IDS F   3     -14.624  53.275 172.5450  0.00  0.00     0.000 C
ATOM     55   O  IDS F   3     -14.943  53.447 171.3710  0.00  0.00     0.000 OA
ATOM     56   O  IDS F   3     -13.487  53.624 172.8880  0.00  0.00     0.000 OA
BRANCH 41 57
ATOM     57  O4  SGN F   4     -16.494  50.058 174.4440  0.00  0.00     0.000 O
BRANCH 57 61
ATOM     58  C1  SGN F   4     -15.516  46.124 173.8820  0.00  0.00     0.000 C
ATOM     59  C2  SGN F   4     -15.704  46.965 172.6100  0.00  0.00     0.000 C
ATOM     60  C3  SGN F   4     -15.662  48.452 172.9160  0.00  0.00     0.000 C
ATOM     61  C4  SGN F   4     -16.671  48.745 174.0250  0.00  0.00     0.000 C
ATOM     62  C5  SGN F   4     -16.429  47.808 175.2230  0.00  0.00     0.000 C
ATOM     63  O5  SGN F   4     -16.489  46.471 174.8290  0.00  0.00     0.000 O
ATOM     64   N  SGN F   4     -14.722  46.603 171.6060  0.00  0.00     0.000 N
ATOM     66  HD  SGN F   4     -15.310  46.309 172.1700  0.00  0.00     0.000 HD
ATOM     66   S  SGN F   4     -15.081  45.358 170.6160  0.00  0.00     0.000 S
ATOM     67   O  SGN F   4     -15.061  44.167 171.4450  0.00  0.00     0.000 OA
ATOM     68   O  SGN F   4     -16.401  45.600 170.0370  0.00  0.00     0.000 OA
ATOM     69   O  SGN F   4     -14.004  45.380 169.6520  0.00  0.00     0.000 OA
ATOM     70   O  SGN F   4     -16.047  49.190 171.7650  0.00  0.00     0.000 O
ATOM     72  HD  SGN F   4     -16.635  48.896 172.3290  0.00  0.00     0.000 HD
ATOM     72   C  SGN F   4     -17.451  47.928 176.3230  0.00  0.00     0.000 C
ATOM     73   O  SGN F   4     -18.708  47.623 175.7630  0.00  0.00     0.000 O
ATOM     74   S  SGN F   4     -19.902  46.980 176.5260  0.00  0.00     0.000 S
ATOM     75   O  SGN F   4     -19.876  47.441 177.8750  0.00  0.00     0.000 OA
ATOM     76   O  SGN F   4     -21.124  47.389 175.8350  0.00  0.00     0.000 OA
ATOM     77   O  SGN F   4     -19.626  45.598 176.4740  0.00  0.00     0.000 OA
BRANCH 58 78
ATOM     78  O4  IDS F   5     -14.216  46.282 174.3980  0.00  0.00     0.000 O
BRANCH 78 82
ATOM     79  C1  IDS F   5     -11.076  45.987 175.8810  0.00  0.00     0.000 C
ATOM     80  C2  IDS F   5     -11.236  45.962 174.3670  0.00  0.00     0.000 C
ATOM     81  C3  IDS F   5     -12.283  44.939 173.9200  0.00  0.00     0.000 C
ATOM     82  C4  IDS F   5     -13.580  45.085 174.7430  0.00  0.00     0.000 C
ATOM     83  C5  IDS F   5     -13.247  45.098 176.2370  0.00  0.00     0.000 C
ATOM     84  O5  IDS F   5     -12.315  46.120 176.5270  0.00  0.00     0.000 O
ATOM     85   O  IDS F   5     -10.388  44.823 176.2660  0.00  0.00     0.000 OA
ATOM     86   O  IDS F   5     -11.679  47.224 173.9550  0.00  0.00     0.000 O
ATOM     87   S  IDS F   5     -11.634  47.836 172.5170  0.00  0.00     0.000 S
ATOM     88   O  IDS F   5     -11.756  46.747 171.5840  0.00  0.00     0.000 OA
ATOM     89   O  IDS F   5     -12.750  48.751 172.4340  0.00  0.00     0.000 OA
ATOM     90   O  IDS F   5     -10.349  48.477 172.4280  0.00  0.00     0.000 OA
ATOM     91   O  IDS F   5     -11.751  43.645 174.1280  0.00  0.00     0.000 O
ATOM     93  HD  IDS F   5     -12.163  43.412 174.8530  0.00  0.00     0.000 HD
ATOM     93   O  IDS F   5     -14.637  46.163 177.8430  0.00  0.00     0.000 OA
ATOM     94   O  IDS F   5     -15.294  44.314 177.1740  0.00  0.00     0.000 OA
ATOM     95   C  IDS F   5     -14.461  45.200 177.1400  0.00  0.00     0.000 C
ENDBRANCH 78 82
ENDBRANCH 58 78
ENDBRANCH 57 61
ENDBRANCH 41 57
ENDBRANCH 40 44
ENDBRANCH 20 40
ENDBRANCH 19 23
ENDBRANCH 1 19
TORSDOF 8
ENDMDL
MODEL 90
REMARK VINA RESULT:      -4.5      3.445     11.673
FFDIST PL LJ 2322 74 36 -1
ROOT
ATOM      1  C1  IDS F   1     -20.135  48.296 175.1900  0.00  0.00     0.000 C
ATOM      2  C2  IDS F   1     -21.554  47.762 174.9370  0.00  0.00     0.000 C
ATOM      3  C3  IDS F   1     -21.585  46.254 174.5910  0.00  0.00     0.000 C
ATOM      4  C4  IDS F   1     -20.565  45.406 175.3850  0.00  0.00     0.000 C
ATOM      5  C5  IDS F   1     -19.249  46.175 175.5520  0.00  0.00     0.000 C
ATOM      6  O5  IDS F   1     -19.491  47.433 176.0890  0.00  0.00     0.000 O
ATOM      7   S  IDS F   1     -23.937  47.929 176.2000  0.00  0.00     0.000 S
ATOM      8   O  IDS F   1     -24.343  46.723 175.5450  0.00  0.00     0.000 OA
ATOM      9   O  IDS F   1     -24.285  47.906 177.5910  0.00  0.00     0.000 OA
ATOM     10   O  IDS F   1     -24.381  49.124 175.5210  0.00  0.00     0.000 OA
ATOM     11   O  IDS F   1     -22.352  47.941 176.0900  0.00  0.00     0.000 O
ATOM     12   O  IDS F   1     -21.315  46.097 173.2000  0.00  0.00     0.000 O
ATOM     14  HD  IDS F   1     -20.903  45.444 172.8090  0.00  0.00     0.000 HD
ATOM     14   O  IDS F   1     -21.125  45.149 176.6490  0.00  0.00     0.000 O
ATOM     16  HD  IDS F   1     -20.713  44.495 176.2580  0.00  0.00     0.000 HD
ATOM     16   O  IDS F   1     -17.480  46.129 177.1440  0.00  0.00     0.000 OA
ATOM     17   O  IDS F   1     -17.924  44.299 176.2340  0.00  0.00     0.000 OA
ATOM     18   C  IDS F   1     -18.162  45.490 176.3550  0.00  0.00     0.000 C
ENDROOT
BRANCH 1 19
ATOM     19  O4  SGN F   2     -20.222  49.547 175.7830  0.00  0.00     0.000 O
BRANCH 19 23
ATOM     20  C1  SGN F   2     -17.076  51.864 174.3270  0.00  0.00     0.000 C
ATOM     21  C2  SGN F   2     -17.618  52.280 175.6850  0.00  0.00     0.000 C
ATOM     22  C3  SGN F   2     -18.339  51.109 176.3690  0.00  0.00     0.000 C
ATOM     23  C4  SGN F   2     -19.462  50.665 175.3780  0.00  0.00     0.000 C
ATOM     24  C5  SGN F   2     -18.777  50.269 174.1130  0.00  0.00     0.000 C
ATOM     25  O5  SGN F   2     -18.127  51.363 173.5490  0.00  0.00     0.000 O
ATOM     26   N  SGN F   2     -16.524  52.901 176.4700  0.00  0.00     0.000 N
ATOM     28  HD  SGN F   2     -16.235  52.836 177.2830  0.00  0.00     0.000 HD
ATOM     28   S  SGN F   2     -16.185  54.517 176.1820  0.00  0.00     0.000 S
ATOM     29   O  SGN F   2     -16.059  54.686 174.7520  0.00  0.00     0.000 OA
ATOM     30   O  SGN F   2     -17.318  55.232 176.7250  0.00  0.00     0.000 OA
ATOM     31   O  SGN F   2     -14.996  54.818 176.8920  0.00  0.00     0.000 OA
ATOM     32   O  SGN F   2     -18.902  51.579 177.5870  0.00  0.00     0.000 O
ATOM     34  HD  SGN F   2     -18.613  51.514 178.4010  0.00  0.00     0.000 HD
ATOM     34   C  SGN F   2     -19.730  49.766 173.0800  0.00  0.00     0.000 C
ATOM     35   O  SGN F   2     -20.668  50.776 172.9280  0.00  0.00     0.000 O
ATOM     36   S  SGN F   2     -21.763  50.862 171.8700  0.00  0.00     0.000 S
ATOM     37   O  SGN F   2     -22.985  51.020 172.6170  0.00  0.00     0.000 OA
ATOM     38   O  SGN F   2     -21.396  52.008 171.0670  0.00  0.00     0.000 OA
ATOM     39   O  SGN F   2     -21.723  49.617 171.1110  0.00  0.00     0.000 OA
BRANCH 20 40
ATOM     40  O4  IDS F   3     -16.059  50.907 174.4470  0.00  0.00     0.000 O
BRANCH 40 44
ATOM     41  C1  IDS F   3     -13.118  49.026 174.5300  0.00  0.00     0.000 C
ATOM     42  C2  IDS F   3     -13.337  50.128 175.5360  0.00  0.00     0.000 C
ATOM     43  C3  IDS F   3     -13.774  51.486 174.8670  0.00  0.00     0.000 C
ATOM     44  C4  IDS F   3     -14.842  51.275 173.8110  0.00  0.00     0.000 C
ATOM     45  C5  IDS F   3     -14.394  50.166 172.8600  0.00  0.00     0.000 C
ATOM     46  O5  IDS F   3     -14.190  48.969 173.5780  0.00  0.00     0.000 O
ATOM     47   O  IDS F   3     -14.312  50.866 178.5330  0.00  0.00     0.000 OA
ATOM     48   O  IDS F   3     -15.165  48.660 178.4700  0.00  0.00     0.000 OA
ATOM     49   O  IDS F   3     -12.818  49.099 178.1470  0.00  0.00     0.000 OA
ATOM     50   O  IDS F   3     -14.324  49.694 176.4780  0.00  0.00     0.000 O
ATOM     51   S  IDS F   3     -14.149  49.563 177.9980  0.00  0.00     0.000 S
ATOM     52   O  IDS F   3     -12.655  52.078 174.2140  0.00  0.00     0.000 O
ATOM     54  HD  IDS F   3     -12.718  51.562 174.9060  0.00  0.00     0.000 HD
ATOM     54   C  IDS F   3     -15.316  49.924 171.6600  0.00  0.00     0.000 C
ATOM     55   O  IDS F   3     -16.141  49.015 171.6650  0.00  0.00     0.000 OA
ATOM     56   O  IDS F   3     -15.263  50.646 170.6550  0.00  0.00     0.000 OA
BRANCH 41 57
ATOM     57  O4  SGN F   4     -11.875  49.218 173.9190  0.00  0.00     0.000 O
BRANCH 57 61
ATOM     58  C1  SGN F   4     -11.429  45.216 173.1850  0.00  0.00     0.000 C
ATOM     59  C2  SGN F   4     -10.743  45.755 174.4510  0.00  0.00     0.000 C
ATOM     60  C3  SGN F   4     -11.289  47.117 174.8410  0.00  0.00     0.000 C
ATOM     61  C4  SGN F   4     -11.197  48.040 173.6280  0.00  0.00     0.000 C
ATOM     62  C5  SGN F   4     -11.862  47.377 172.4060  0.00  0.00     0.000 C
ATOM     63  O5  SGN F   4     -11.285  46.136 172.1390  0.00  0.00     0.000 O
ATOM     64   N  SGN F   4     -10.857  44.805 175.5410  0.00  0.00     0.000 N
ATOM     66  HD  SGN F   4     -10.651  44.915 174.7070  0.00  0.00     0.000 HD
ATOM     66   S  SGN F   4      -9.724  43.637 175.6450  0.00  0.00     0.000 S
ATOM     67   O  SGN F   4      -9.945  42.762 174.5090  0.00  0.00     0.000 OA
ATOM     68   O  SGN F   4      -8.408  44.271 175.6000  0.00  0.00     0.000 OA
ATOM     69   O  SGN F   4     -10.025  42.996 176.9050  0.00  0.00     0.000 OA
ATOM     70   O  SGN F   4     -10.493  47.674 175.8780  0.00  0.00     0.000 O
ATOM     72  HD  SGN F   4     -10.287  47.784 175.0440  0.00  0.00     0.000 HD
ATOM     72   C  SGN F   4     -11.715  48.151 171.1220  0.00  0.00     0.000 C
ATOM     73   O  SGN F   4     -10.335  48.280 170.8650  0.00  0.00     0.000 O
ATOM     74   S  SGN F   4      -9.686  48.379 169.4540  0.00  0.00     0.000 S
ATOM     75   O  SGN F   4     -10.585  49.072 168.5920  0.00  0.00     0.000 OA
ATOM     76   O  SGN F   4      -8.421  49.094 169.6110  0.00  0.00     0.000 OA
ATOM     77   O  SGN F   4      -9.560  47.033 169.0510  0.00  0.00     0.000 OA
BRANCH 58 78
ATOM     78  O4  IDS F   5     -12.783  44.929 173.4360  0.00  0.00     0.000 O
BRANCH 78 82
ATOM     79  C1  IDS F   5     -16.059  43.742 173.5310  0.00  0.00     0.000 C
ATOM     80  C2  IDS F   5     -15.028  43.287 174.5550  0.00  0.00     0.000 C
ATOM     81  C3  IDS F   5     -13.749  42.776 173.8890  0.00  0.00     0.000 C
ATOM     82  C4  IDS F   5     -13.255  43.768 172.8140  0.00  0.00     0.000 C
ATOM     83  C5  IDS F   5     -14.407  44.127 171.8730  0.00  0.00     0.000 C
ATOM     84  O5  IDS F   5     -15.503  44.637 172.6030  0.00  0.00     0.000 O
ATOM     85   O  IDS F   5     -16.602  42.598 172.9200  0.00  0.00     0.000 OA
ATOM     86   O  IDS F   5     -14.681  44.392 175.3430  0.00  0.00     0.000 O
ATOM     87   S  IDS F   5     -13.977  44.392 176.7390  0.00  0.00     0.000 S
ATOM     88   O  IDS F   5     -13.118  43.239 176.7860  0.00  0.00     0.000 OA
ATOM     89   O  IDS F   5     -13.233  45.629 176.8140  0.00  0.00     0.000 OA
ATOM     90   O  IDS F   5     -15.050  44.300 177.6940  0.00  0.00     0.000 OA
ATOM     91   O  IDS F   5     -14.039  41.538 173.2720  0.00  0.00     0.000 O
ATOM     93  HD  IDS F   5     -14.104  41.778 172.4420  0.00  0.00     0.000 HD
ATOM     93   O  IDS F   5     -14.484  46.179 170.6790  0.00  0.00     0.000 OA
ATOM     94   O  IDS F   5     -13.217  44.735 169.8980  0.00  0.00     0.000 OA
ATOM     95   C  IDS F   5     -14.017  45.071 170.7510  0.00  0.00     0.000 C
ENDBRANCH 78 82
ENDBRANCH 58 78
ENDBRANCH 57 61
ENDBRANCH 41 57
ENDBRANCH 40 44
ENDBRANCH 20 40
ENDBRANCH 19 23
ENDBRANCH 1 19
TORSDOF 8
ENDMDL
MODEL 91
REMARK VINA RESULT:      -4.4      3.789      6.896
FFDIST PL LJ 2322 74 36 -1
ROOT
ATOM      1  C1  IDS F   1     -13.400  44.841 176.8190  0.00  0.00     0.000 C
ATOM      2  C2  IDS F   1     -12.013  44.294 176.4440  0.00  0.00     0.000 C
ATOM      3  C3  IDS F   1     -11.695  42.932 177.1070  0.00  0.00     0.000 C
ATOM      4  C4  IDS F   1     -12.910  41.979 177.1960  0.00  0.00     0.000 C
ATOM      5  C5  IDS F   1     -14.182  42.767 177.5280  0.00  0.00     0.000 C
ATOM      6  O5  IDS F   1     -14.343  43.819 176.6360  0.00  0.00     0.000 O
ATOM      7   S  IDS F   1     -10.623  43.954 174.1520  0.00  0.00     0.000 S
ATOM      8   O  IDS F   1      -9.850  42.937 174.7980  0.00  0.00     0.000 OA
ATOM      9   O  IDS F   1     -11.030  43.541 172.8400  0.00  0.00     0.000 OA
ATOM     10   O  IDS F   1      -9.988  45.252 174.1690  0.00  0.00     0.000 OA
ATOM     11   O  IDS F   1     -11.928  44.106 175.0460  0.00  0.00     0.000 O
ATOM     12   O  IDS F   1     -11.208  43.166 178.4260  0.00  0.00     0.000 O
ATOM     14  HD  IDS F   1     -11.313  42.669 179.1280  0.00  0.00     0.000 HD
ATOM     14   O  IDS F   1     -13.051  41.359 175.9420  0.00  0.00     0.000 O
ATOM     16  HD  IDS F   1     -13.156  40.862 176.6440  0.00  0.00     0.000 HD
ATOM     16   O  IDS F   1     -16.506  42.428 177.1350  0.00  0.00     0.000 OA
ATOM     17   O  IDS F   1     -15.522  40.875 178.1340  0.00  0.00     0.000 OA
ATOM     18   C  IDS F   1     -15.471  41.973 177.6020  0.00  0.00     0.000 C
ENDROOT
BRANCH 1 19
ATOM     19  O4  SGN F   2     -13.722  45.882 175.9610  0.00  0.00     0.000 O
BRANCH 19 23
ATOM     20  C1  SGN F   2     -16.958  47.981 174.3750  0.00  0.00     0.000 C
ATOM     21  C2  SGN F   2     -17.035  47.692 175.8650  0.00  0.00     0.000 C
ATOM     22  C3  SGN F   2     -15.636  47.440 176.4480  0.00  0.00     0.000 C
ATOM     23  C4  SGN F   2     -15.044  46.248 175.6290  0.00  0.00     0.000 C
ATOM     24  C5  SGN F   2     -15.011  46.690 174.2040  0.00  0.00     0.000 C
ATOM     25  O5  SGN F   2     -16.302  46.920 173.7370  0.00  0.00     0.000 O
ATOM     26   N  SGN F   2     -17.816  48.767 176.5230  0.00  0.00     0.000 N
ATOM     28  HD  SGN F   2     -17.724  49.245 177.2390  0.00  0.00     0.000 HD
ATOM     28   S  SGN F   2     -19.487  48.649 176.4790  0.00  0.00     0.000 S
ATOM     29   O  SGN F   2     -19.868  48.393 175.1080  0.00  0.00     0.000 OA
ATOM     30   O  SGN F   2     -19.800  47.541 177.3530  0.00  0.00     0.000 OA
ATOM     31   O  SGN F   2     -19.997  49.870 176.9870  0.00  0.00     0.000 OA
ATOM     32   O  SGN F   2     -15.779  47.085 177.8180  0.00  0.00     0.000 O
ATOM     34  HD  SGN F   2     -15.688  47.564 178.5340  0.00  0.00     0.000 HD
ATOM     34   C  SGN F   2     -14.412  45.663 173.3020  0.00  0.00     0.000 C
ATOM     35   O  SGN F   2     -15.149  44.509 173.5230  0.00  0.00     0.000 O
ATOM     36   S  SGN F   2     -15.079  43.207 172.7330  0.00  0.00     0.000 S
ATOM     37   O  SGN F   2     -14.811  42.191 173.7190  0.00  0.00     0.000 OA
ATOM     38   O  SGN F   2     -16.376  43.102 172.1000  0.00  0.00     0.000 OA
ATOM     39   O  SGN F   2     -13.999  43.353 171.7650  0.00  0.00     0.000 OA
BRANCH 20 40
ATOM     40  O4  IDS F   3     -16.296  49.190 174.1160  0.00  0.00     0.000 O
BRANCH 40 44
ATOM     41  C1  IDS F   3     -15.515  52.528 173.4550  0.00  0.00     0.000 C
ATOM     42  C2  IDS F   3     -16.645  52.190 174.3950  0.00  0.00     0.000 C
ATOM     43  C3  IDS F   3     -17.648  51.138 173.7860  0.00  0.00     0.000 C
ATOM     44  C4  IDS F   3     -16.920  49.987 173.1190  0.00  0.00     0.000 C
ATOM     45  C5  IDS F   3     -15.867  50.548 172.1640  0.00  0.00     0.000 C
ATOM     46  O5  IDS F   3     -14.947  51.344 172.8760  0.00  0.00     0.000 O
ATOM     47   O  IDS F   3     -17.542  51.809 177.4820  0.00  0.00     0.000 OA
ATOM     48   O  IDS F   3     -15.204  51.824 177.8440  0.00  0.00     0.000 OA
ATOM     49   O  IDS F   3     -16.315  53.689 176.8000  0.00  0.00     0.000 OA
ATOM     50   O  IDS F   3     -16.088  51.699 175.6200  0.00  0.00     0.000 O
ATOM     51   S  IDS F   3     -16.289  52.290 177.0230  0.00  0.00     0.000 S
ATOM     52   O  IDS F   3     -18.446  51.763 172.7860  0.00  0.00     0.000 O
ATOM     54  HD  IDS F   3     -18.067  52.068 173.5020  0.00  0.00     0.000 HD
ATOM     54   C  IDS F   3     -15.133  49.503 171.3170  0.00  0.00     0.000 C
ATOM     55   O  IDS F   3     -14.021  49.091 171.6380  0.00  0.00     0.000 OA
ATOM     56   O  IDS F   3     -15.644  49.035 170.2910  0.00  0.00     0.000 OA
BRANCH 41 57
ATOM     57  O4  SGN F   4     -15.988  53.420 172.4880  0.00  0.00     0.000 O
BRANCH 57 61
ATOM     58  C1  SGN F   4     -16.157  57.487 172.0710  0.00  0.00     0.000 C
ATOM     59  C2  SGN F   4     -14.861  56.919 172.6710  0.00  0.00     0.000 C
ATOM     60  C3  SGN F   4     -14.736  55.428 172.4130  0.00  0.00     0.000 C
ATOM     61  C4  SGN F   4     -16.013  54.746 172.9010  0.00  0.00     0.000 C
ATOM     62  C5  SGN F   4     -17.249  55.431 172.2850  0.00  0.00     0.000 C
ATOM     63  O5  SGN F   4     -17.261  56.794 172.5830  0.00  0.00     0.000 O
ATOM     64   N  SGN F   4     -13.706  57.642 172.1730  0.00  0.00     0.000 N
ATOM     66  HD  SGN F   4     -14.496  57.709 172.5200  0.00  0.00     0.000 HD
ATOM     66   S  SGN F   4     -13.264  58.996 172.9660  0.00  0.00     0.000 S
ATOM     67   O  SGN F   4     -14.311  59.968 172.7140  0.00  0.00     0.000 OA
ATOM     68   O  SGN F   4     -13.146  58.675 174.3870  0.00  0.00     0.000 OA
ATOM     69   O  SGN F   4     -12.012  59.354 172.3390  0.00  0.00     0.000 OA
ATOM     70   O  SGN F   4     -13.646  54.902 173.1570  0.00  0.00     0.000 O
ATOM     72  HD  SGN F   4     -14.437  54.970 173.5040  0.00  0.00     0.000 HD
ATOM     72   C  SGN F   4     -18.567  54.916 172.8010  0.00  0.00     0.000 C
ATOM     73   O  SGN F   4     -18.585  55.128 174.1940  0.00  0.00     0.000 O
ATOM     74   S  SGN F   4     -19.859  55.392 175.0490  0.00  0.00     0.000 S
ATOM     75   O  SGN F   4     -20.943  54.664 174.4790  0.00  0.00     0.000 OA
ATOM     76   O  SGN F   4     -19.562  54.951 176.4110  0.00  0.00     0.000 OA
ATOM     77   O  SGN F   4     -20.072  56.779 174.9080  0.00  0.00     0.000 OA
BRANCH 58 78
ATOM     78  O4  IDS F   5     -16.122  57.433 170.6650  0.00  0.00     0.000 O
BRANCH 78 82
ATOM     79  C1  IDS F   5     -16.515  57.830 167.2240  0.00  0.00     0.000 C
ATOM     80  C2  IDS F   5     -15.293  58.382 167.9450  0.00  0.00     0.000 C
ATOM     81  C3  IDS F   5     -15.680  59.244 169.1490  0.00  0.00     0.000 C
ATOM     82  C4  IDS F   5     -16.725  58.522 170.0270  0.00  0.00     0.000 C
ATOM     83  C5  IDS F   5     -17.880  58.026 169.1550  0.00  0.00     0.000 C
ATOM     84  O5  IDS F   5     -17.397  57.199 168.1170  0.00  0.00     0.000 O
ATOM     85   O  IDS F   5     -17.121  58.886 166.5220  0.00  0.00     0.000 OA
ATOM     86   O  IDS F   5     -14.544  57.300 168.4250  0.00  0.00     0.000 O
ATOM     87   S  IDS F   5     -13.050  57.294 168.8850  0.00  0.00     0.000 S
ATOM     88   O  IDS F   5     -12.762  58.598 169.4220  0.00  0.00     0.000 OA
ATOM     89   O  IDS F   5     -12.942  56.257 169.8860  0.00  0.00     0.000 OA
ATOM     90   O  IDS F   5     -12.296  57.029 167.6880  0.00  0.00     0.000 OA
ATOM     91   O  IDS F   5     -16.240  60.448 168.6660  0.00  0.00     0.000 O
ATOM     93  HD  IDS F   5     -17.084  60.299 168.7890  0.00  0.00     0.000 HD
ATOM     93   O  IDS F   5     -19.225  56.164 169.7620  0.00  0.00     0.000 OA
ATOM     94   O  IDS F   5     -19.654  57.938 170.7450  0.00  0.00     0.000 OA
ATOM     95   C  IDS F   5     -18.985  57.333 169.9290  0.00  0.00     0.000 C
ENDBRANCH 78 82
ENDBRANCH 58 78
ENDBRANCH 57 61
ENDBRANCH 41 57
ENDBRANCH 40 44
ENDBRANCH 20 40
ENDBRANCH 19 23
ENDBRANCH 1 19
TORSDOF 8
ENDMDL
